/*---------------------------------------------------------------------------*\
  =========                 |
  \\      /  F ield         | OpenFOAM: The Open Source CFD Toolbox
   \\    /   O peration     | Website:  https://openfoam.org
    \\  /    A nd           | Version:  8
     \\/     M anipulation  |
\*---------------------------------------------------------------------------*/
Build  : 8-1c9b5879390b
Exec   : simpleFoam
Date   : May 18 2026
Time   : 18:03:17
Host   : "2479209b704b"
PID    : 2015
I/O    : uncollated
Case   : /home/openfoam/bachelors/tests/recomputeOfShame/msi/medium/simpleFoam_kO
nProcs : 1
sigFpe : Enabling floating point exception trapping (FOAM_SIGFPE).
fileModificationChecking : Monitoring run-time modified files using timeStampMaster (fileModificationSkew 10)
allowSystemOperations : Allowing user-supplied system call operations

// * * * * * * * * * * * * * * * * * * * * * * * * * * * * * * * * * * * * * //
Create time

Create mesh for time = 0


SIMPLE: Convergence criteria found
        p: tolerance 1e-05

Reading field p

Reading field U

Reading/calculating face flux field phi

Selecting incompressible transport model Newtonian
Selecting turbulence model type RAS
Selecting RAS turbulence model kOmega
RAS
{
    RASModel        kOmega;
    turbulence      on;
    printCoeffs     on;
    betaStar        0.09;
    beta            0.072;
    gamma           0.52;
    alphaK          0.5;
    alphaOmega      0.5;
}

No MRF models present

No finite volume options present

Starting time loop

Time = 1

DILUPBiCGStab:  Solving for Ux, Initial residual = 1, Final residual = 0.001572690006, No Iterations 2
DILUPBiCGStab:  Solving for Uy, Initial residual = 0, Final residual = 0, No Iterations 0
GAMG:  Solving for p, Initial residual = 1, Final residual = 0.004073375705, No Iterations 9
time step continuity errors : sum local = 0.4600808566, global = 0.05267650129, cumulative = 0.05267650129
DILUPBiCGStab:  Solving for omega, Initial residual = 0.02148567869, Final residual = 4.566793106e-05, No Iterations 2
DILUPBiCGStab:  Solving for k, Initial residual = 1, Final residual = 0.003117470757, No Iterations 2
ExecutionTime = 0.12 s  ClockTime = 0 s

Time = 2

DILUPBiCGStab:  Solving for Ux, Initial residual = 0.4689694011, Final residual = 0.0006353406062, No Iterations 2
DILUPBiCGStab:  Solving for Uy, Initial residual = 0.3885873077, Final residual = 5.990932813e-05, No Iterations 3
GAMG:  Solving for p, Initial residual = 0.01602902253, Final residual = 4.56898291e-05, No Iterations 7
time step continuity errors : sum local = 0.4238087111, global = 0.0228110668, cumulative = 0.07548756809
DILUPBiCGStab:  Solving for omega, Initial residual = 0.003493545272, Final residual = 6.296847157e-06, No Iterations 2
DILUPBiCGStab:  Solving for k, Initial residual = 0.2569717946, Final residual = 0.001019616329, No Iterations 1
ExecutionTime = 0.15 s  ClockTime = 0 s

Time = 3

DILUPBiCGStab:  Solving for Ux, Initial residual = 0.3325221341, Final residual = 0.0003359308269, No Iterations 2
DILUPBiCGStab:  Solving for Uy, Initial residual = 0.266369568, Final residual = 0.001068126632, No Iterations 2
GAMG:  Solving for p, Initial residual = 0.01378462064, Final residual = 2.389250211e-05, No Iterations 8
time step continuity errors : sum local = 0.3359639542, global = 0.02850822773, cumulative = 0.1039957958
DILUPBiCGStab:  Solving for omega, Initial residual = 0.003281654641, Final residual = 3.037141331e-05, No Iterations 1
DILUPBiCGStab:  Solving for k, Initial residual = 0.123900223, Final residual = 0.0005437907162, No Iterations 1
ExecutionTime = 0.19 s  ClockTime = 0 s

Time = 4

DILUPBiCGStab:  Solving for Ux, Initial residual = 0.2411115858, Final residual = 0.0003491062126, No Iterations 2
DILUPBiCGStab:  Solving for Uy, Initial residual = 0.185811167, Final residual = 0.0007575743933, No Iterations 2
GAMG:  Solving for p, Initial residual = 0.01503301794, Final residual = 3.701382963e-05, No Iterations 6
time step continuity errors : sum local = 0.5577396635, global = -0.02464569762, cumulative = 0.07935009821
DILUPBiCGStab:  Solving for omega, Initial residual = 0.003130459532, Final residual = 2.65588352e-05, No Iterations 1
DILUPBiCGStab:  Solving for k, Initial residual = 0.07421436281, Final residual = 0.0003702325602, No Iterations 1
ExecutionTime = 0.22 s  ClockTime = 0 s

Time = 5

DILUPBiCGStab:  Solving for Ux, Initial residual = 0.1680285936, Final residual = 0.0001595058505, No Iterations 2
DILUPBiCGStab:  Solving for Uy, Initial residual = 0.1277148768, Final residual = 0.0005872957917, No Iterations 2
GAMG:  Solving for p, Initial residual = 0.02108034824, Final residual = 4.079083493e-05, No Iterations 7
time step continuity errors : sum local = 0.5119201562, global = -0.07258383995, cumulative = 0.006766258254
DILUPBiCGStab:  Solving for omega, Initial residual = 0.003000425645, Final residual = 2.402282751e-05, No Iterations 1
DILUPBiCGStab:  Solving for k, Initial residual = 0.04903316233, Final residual = 0.0002956076672, No Iterations 1
ExecutionTime = 0.25 s  ClockTime = 0 s

Time = 6

DILUPBiCGStab:  Solving for Ux, Initial residual = 0.1034396996, Final residual = 0.0002196874072, No Iterations 2
DILUPBiCGStab:  Solving for Uy, Initial residual = 0.08632955516, Final residual = 0.0001878153466, No Iterations 2
GAMG:  Solving for p, Initial residual = 0.03299661152, Final residual = 0.0001483779424, No Iterations 7
time step continuity errors : sum local = 1.19836039, global = -0.0537832253, cumulative = -0.04701696705
DILUPBiCGStab:  Solving for omega, Initial residual = 0.00302448265, Final residual = 2.048819907e-05, No Iterations 1
DILUPBiCGStab:  Solving for k, Initial residual = 0.03722514252, Final residual = 0.0002668298726, No Iterations 1
ExecutionTime = 0.28 s  ClockTime = 0 s

Time = 7

DILUPBiCGStab:  Solving for Ux, Initial residual = 0.04539638121, Final residual = 7.14811239e-05, No Iterations 2
DILUPBiCGStab:  Solving for Uy, Initial residual = 0.06104822106, Final residual = 0.0005716529321, No Iterations 2
GAMG:  Solving for p, Initial residual = 0.1084909577, Final residual = 0.0004875360571, No Iterations 7
time step continuity errors : sum local = 1.215179796, global = -0.02576911413, cumulative = -0.07278608118
DILUPBiCGStab:  Solving for omega, Initial residual = 0.002881190038, Final residual = 1.860340593e-05, No Iterations 1
DILUPBiCGStab:  Solving for k, Initial residual = 0.02996692367, Final residual = 0.0002396175833, No Iterations 1
ExecutionTime = 0.32 s  ClockTime = 0 s

Time = 8

DILUPBiCGStab:  Solving for Ux, Initial residual = 0.02955882697, Final residual = 4.323091916e-05, No Iterations 2
DILUPBiCGStab:  Solving for Uy, Initial residual = 0.06112780112, Final residual = 0.0003502670482, No Iterations 2
GAMG:  Solving for p, Initial residual = 0.05611981829, Final residual = 0.0001492997853, No Iterations 8
time step continuity errors : sum local = 0.6837995853, global = -0.06386400017, cumulative = -0.1366500814
DILUPBiCGStab:  Solving for omega, Initial residual = 0.003021643661, Final residual = 1.555123831e-05, No Iterations 1
DILUPBiCGStab:  Solving for k, Initial residual = 0.02828951814, Final residual = 0.0002149617414, No Iterations 1
ExecutionTime = 0.35 s  ClockTime = 0 s

Time = 9

DILUPBiCGStab:  Solving for Ux, Initial residual = 0.08168645219, Final residual = 7.115663986e-05, No Iterations 2
DILUPBiCGStab:  Solving for Uy, Initial residual = 0.06994396675, Final residual = 0.0004709753639, No Iterations 2
GAMG:  Solving for p, Initial residual = 0.028834659, Final residual = 0.0001363888693, No Iterations 5
time step continuity errors : sum local = 1.11864712, global = -0.1015432064, cumulative = -0.2381932878
DILUPBiCGStab:  Solving for omega, Initial residual = 0.002658490914, Final residual = 1.461576476e-05, No Iterations 1
DILUPBiCGStab:  Solving for k, Initial residual = 0.0254611018, Final residual = 0.0002009844976, No Iterations 1
ExecutionTime = 0.38 s  ClockTime = 0 s

Time = 10

DILUPBiCGStab:  Solving for Ux, Initial residual = 0.1225112236, Final residual = 0.0001207374207, No Iterations 2
DILUPBiCGStab:  Solving for Uy, Initial residual = 0.07548796771, Final residual = 0.0002599043554, No Iterations 2
GAMG:  Solving for p, Initial residual = 0.0233622554, Final residual = 0.0001123017259, No Iterations 5
time step continuity errors : sum local = 1.150186178, global = 0.1007571417, cumulative = -0.1374361461
DILUPBiCGStab:  Solving for omega, Initial residual = 0.002761872688, Final residual = 1.326291219e-05, No Iterations 1
DILUPBiCGStab:  Solving for k, Initial residual = 0.02657721486, Final residual = 0.0001938006298, No Iterations 1
ExecutionTime = 0.41 s  ClockTime = 0 s

Time = 11

DILUPBiCGStab:  Solving for Ux, Initial residual = 0.141470525, Final residual = 0.0001141686735, No Iterations 2
DILUPBiCGStab:  Solving for Uy, Initial residual = 0.07288522722, Final residual = 1.063277026e-05, No Iterations 3
GAMG:  Solving for p, Initial residual = 0.02618712293, Final residual = 7.729479631e-05, No Iterations 5
time step continuity errors : sum local = 0.7873923551, global = 0.06310322966, cumulative = -0.07433291642
DILUPBiCGStab:  Solving for omega, Initial residual = 0.002479682646, Final residual = 1.242290709e-05, No Iterations 1
DILUPBiCGStab:  Solving for k, Initial residual = 0.02567746782, Final residual = 0.0001860994266, No Iterations 1
ExecutionTime = 0.44 s  ClockTime = 0 s

Time = 12

DILUPBiCGStab:  Solving for Ux, Initial residual = 0.1296985917, Final residual = 0.0001231478245, No Iterations 2
DILUPBiCGStab:  Solving for Uy, Initial residual = 0.06463698448, Final residual = 0.00017668323, No Iterations 2
GAMG:  Solving for p, Initial residual = 0.03238409685, Final residual = 0.0001380277199, No Iterations 5
time step continuity errors : sum local = 1.207552863, global = 0.02268192448, cumulative = -0.05165099194
DILUPBiCGStab:  Solving for omega, Initial residual = 0.002358464883, Final residual = 1.286069856e-05, No Iterations 1
DILUPBiCGStab:  Solving for k, Initial residual = 0.02499408194, Final residual = 0.0001736000517, No Iterations 1
ExecutionTime = 0.47 s  ClockTime = 0 s

Time = 13

DILUPBiCGStab:  Solving for Ux, Initial residual = 0.08924418647, Final residual = 0.0001022379066, No Iterations 2
DILUPBiCGStab:  Solving for Uy, Initial residual = 0.05233929185, Final residual = 9.01466406e-05, No Iterations 2
GAMG:  Solving for p, Initial residual = 0.04580765079, Final residual = 0.0002067112934, No Iterations 5
time step continuity errors : sum local = 1.296095895, global = 0.242601048, cumulative = 0.1909500561
DILUPBiCGStab:  Solving for omega, Initial residual = 0.002287769323, Final residual = 1.262683199e-05, No Iterations 1
DILUPBiCGStab:  Solving for k, Initial residual = 0.02464932968, Final residual = 0.0001647016631, No Iterations 1
ExecutionTime = 0.5 s  ClockTime = 0 s

Time = 14

DILUPBiCGStab:  Solving for Ux, Initial residual = 0.04039913866, Final residual = 7.28706681e-05, No Iterations 2
DILUPBiCGStab:  Solving for Uy, Initial residual = 0.05277108136, Final residual = 0.0003792058746, No Iterations 2
GAMG:  Solving for p, Initial residual = 0.08025873253, Final residual = 0.0003480800394, No Iterations 5
time step continuity errors : sum local = 1.241841358, global = 0.1575214691, cumulative = 0.3484715252
DILUPBiCGStab:  Solving for omega, Initial residual = 0.002382303038, Final residual = 1.158223557e-05, No Iterations 1
DILUPBiCGStab:  Solving for k, Initial residual = 0.02378035889, Final residual = 0.0001532485647, No Iterations 1
ExecutionTime = 0.53 s  ClockTime = 0 s

Time = 15

DILUPBiCGStab:  Solving for Ux, Initial residual = 0.03191320988, Final residual = 7.860653181e-05, No Iterations 2
DILUPBiCGStab:  Solving for Uy, Initial residual = 0.05715035673, Final residual = 0.0002348292818, No Iterations 2
GAMG:  Solving for p, Initial residual = 0.1763719521, Final residual = 0.0004920999145, No Iterations 5
time step continuity errors : sum local = 0.7838763745, global = 0.04790170109, cumulative = 0.3963732263
DILUPBiCGStab:  Solving for omega, Initial residual = 0.002356995612, Final residual = 1.205440624e-05, No Iterations 1
DILUPBiCGStab:  Solving for k, Initial residual = 0.02458164959, Final residual = 0.0001450759471, No Iterations 1
ExecutionTime = 0.56 s  ClockTime = 0 s

Time = 16

DILUPBiCGStab:  Solving for Ux, Initial residual = 0.05368659517, Final residual = 7.34027582e-05, No Iterations 2
DILUPBiCGStab:  Solving for Uy, Initial residual = 0.06110727569, Final residual = 0.000559745685, No Iterations 2
GAMG:  Solving for p, Initial residual = 0.08154996677, Final residual = 0.000342264922, No Iterations 5
time step continuity errors : sum local = 1.119578503, global = 0.01438678527, cumulative = 0.4107600116
DILUPBiCGStab:  Solving for omega, Initial residual = 0.002419504213, Final residual = 1.087532527e-05, No Iterations 1
DILUPBiCGStab:  Solving for k, Initial residual = 0.02413740311, Final residual = 0.0001324342635, No Iterations 1
ExecutionTime = 0.58 s  ClockTime = 0 s

Time = 17

DILUPBiCGStab:  Solving for Ux, Initial residual = 0.05989963917, Final residual = 7.328828561e-05, No Iterations 2
DILUPBiCGStab:  Solving for Uy, Initial residual = 0.06099905967, Final residual = 0.0005328577758, No Iterations 2
GAMG:  Solving for p, Initial residual = 0.06546344166, Final residual = 0.0001953574494, No Iterations 5
time step continuity errors : sum local = 0.7712976081, global = -0.06986840481, cumulative = 0.3408916067
DILUPBiCGStab:  Solving for omega, Initial residual = 0.002398237531, Final residual = 1.073743019e-05, No Iterations 1
DILUPBiCGStab:  Solving for k, Initial residual = 0.02284977552, Final residual = 0.000120480964, No Iterations 1
ExecutionTime = 0.62 s  ClockTime = 0 s

Time = 18

DILUPBiCGStab:  Solving for Ux, Initial residual = 0.05432430905, Final residual = 6.171333381e-05, No Iterations 2
DILUPBiCGStab:  Solving for Uy, Initial residual = 0.05636448393, Final residual = 0.0001806420438, No Iterations 2
GAMG:  Solving for p, Initial residual = 0.06751610398, Final residual = 0.0002738878143, No Iterations 5
time step continuity errors : sum local = 1.031965329, global = -0.1635188971, cumulative = 0.1773727096
DILUPBiCGStab:  Solving for omega, Initial residual = 0.002323683874, Final residual = 9.860488492e-06, No Iterations 1
DILUPBiCGStab:  Solving for k, Initial residual = 0.02165962022, Final residual = 0.0001108531607, No Iterations 1
ExecutionTime = 0.64 s  ClockTime = 0 s

Time = 19

DILUPBiCGStab:  Solving for Ux, Initial residual = 0.04218711531, Final residual = 5.107472135e-05, No Iterations 2
DILUPBiCGStab:  Solving for Uy, Initial residual = 0.04873617519, Final residual = 7.461648669e-06, No Iterations 3
GAMG:  Solving for p, Initial residual = 0.08677069153, Final residual = 0.0002247638183, No Iterations 5
time step continuity errors : sum local = 0.6499460817, global = -0.03995446353, cumulative = 0.1374182461
DILUPBiCGStab:  Solving for omega, Initial residual = 0.002225399688, Final residual = 9.124661502e-06, No Iterations 1
DILUPBiCGStab:  Solving for k, Initial residual = 0.02020171221, Final residual = 0.0001035173825, No Iterations 1
ExecutionTime = 0.67 s  ClockTime = 0 s

Time = 20

DILUPBiCGStab:  Solving for Ux, Initial residual = 0.02686668897, Final residual = 3.897622228e-05, No Iterations 2
DILUPBiCGStab:  Solving for Uy, Initial residual = 0.04282975527, Final residual = 8.018447728e-05, No Iterations 2
GAMG:  Solving for p, Initial residual = 0.1500946117, Final residual = 0.0004072743031, No Iterations 5
time step continuity errors : sum local = 0.657814844, global = -0.02920437003, cumulative = 0.108213876
DILUPBiCGStab:  Solving for omega, Initial residual = 0.002108602606, Final residual = 8.44736638e-06, No Iterations 1
DILUPBiCGStab:  Solving for k, Initial residual = 0.01888494222, Final residual = 9.739900061e-05, No Iterations 1
ExecutionTime = 0.71 s  ClockTime = 1 s

Time = 21

DILUPBiCGStab:  Solving for Ux, Initial residual = 0.01244438243, Final residual = 3.049876685e-05, No Iterations 2
DILUPBiCGStab:  Solving for Uy, Initial residual = 0.03971661369, Final residual = 0.0003284235575, No Iterations 2
GAMG:  Solving for p, Initial residual = 0.08636080905, Final residual = 0.0002335477777, No Iterations 5
time step continuity errors : sum local = 0.6291403814, global = -0.05494502066, cumulative = 0.05326885539
DILUPBiCGStab:  Solving for omega, Initial residual = 0.001980090154, Final residual = 7.926081011e-06, No Iterations 1
DILUPBiCGStab:  Solving for k, Initial residual = 0.01779490678, Final residual = 9.142780131e-05, No Iterations 1
ExecutionTime = 0.73 s  ClockTime = 1 s

Time = 22

DILUPBiCGStab:  Solving for Ux, Initial residual = 0.01999550713, Final residual = 3.09484246e-05, No Iterations 2
DILUPBiCGStab:  Solving for Uy, Initial residual = 0.03915072442, Final residual = 0.0003390782791, No Iterations 2
GAMG:  Solving for p, Initial residual = 0.05927511789, Final residual = 0.0002363716174, No Iterations 5
time step continuity errors : sum local = 0.8976543683, global = -0.1189421339, cumulative = -0.06567327855
DILUPBiCGStab:  Solving for omega, Initial residual = 0.001842659639, Final residual = 7.560783513e-06, No Iterations 1
DILUPBiCGStab:  Solving for k, Initial residual = 0.01664234332, Final residual = 8.503692835e-05, No Iterations 1
ExecutionTime = 0.76 s  ClockTime = 1 s

Time = 23

DILUPBiCGStab:  Solving for Ux, Initial residual = 0.02796663796, Final residual = 3.255097803e-05, No Iterations 2
DILUPBiCGStab:  Solving for Uy, Initial residual = 0.03922015629, Final residual = 8.642354242e-05, No Iterations 2
GAMG:  Solving for p, Initial residual = 0.04912207955, Final residual = 0.0001904014191, No Iterations 5
time step continuity errors : sum local = 0.8524763956, global = 0.0517046152, cumulative = -0.01396866335
DILUPBiCGStab:  Solving for omega, Initial residual = 0.001713271431, Final residual = 7.157191325e-06, No Iterations 1
DILUPBiCGStab:  Solving for k, Initial residual = 0.01546636783, Final residual = 7.862138532e-05, No Iterations 1
ExecutionTime = 0.79 s  ClockTime = 1 s

Time = 24

DILUPBiCGStab:  Solving for Ux, Initial residual = 0.03179109874, Final residual = 3.472371527e-05, No Iterations 2
DILUPBiCGStab:  Solving for Uy, Initial residual = 0.03898493571, Final residual = 7.103440918e-06, No Iterations 3
GAMG:  Solving for p, Initial residual = 0.04595700798, Final residual = 0.0001811391743, No Iterations 4
time step continuity errors : sum local = 0.852323822, global = -0.06434580084, cumulative = -0.07831446419
DILUPBiCGStab:  Solving for omega, Initial residual = 0.001594644818, Final residual = 6.746847547e-06, No Iterations 1
DILUPBiCGStab:  Solving for k, Initial residual = 0.01434650724, Final residual = 7.241811967e-05, No Iterations 1
ExecutionTime = 0.82 s  ClockTime = 1 s

Time = 25

DILUPBiCGStab:  Solving for Ux, Initial residual = 0.0305506194, Final residual = 3.527265754e-05, No Iterations 2
DILUPBiCGStab:  Solving for Uy, Initial residual = 0.03862039154, Final residual = 7.98180056e-05, No Iterations 2
GAMG:  Solving for p, Initial residual = 0.0470980051, Final residual = 8.995229806e-05, No Iterations 6
time step continuity errors : sum local = 0.4069030496, global = 0.06914587896, cumulative = -0.009168585234
DILUPBiCGStab:  Solving for omega, Initial residual = 0.001495242449, Final residual = 6.412217031e-06, No Iterations 1
DILUPBiCGStab:  Solving for k, Initial residual = 0.01331124386, Final residual = 6.656761158e-05, No Iterations 1
ExecutionTime = 0.85 s  ClockTime = 1 s

Time = 26

DILUPBiCGStab:  Solving for Ux, Initial residual = 0.02505633922, Final residual = 3.630461658e-05, No Iterations 2
DILUPBiCGStab:  Solving for Uy, Initial residual = 0.03805239418, Final residual = 0.0002623547675, No Iterations 2
GAMG:  Solving for p, Initial residual = 0.05255825342, Final residual = 0.0001581027781, No Iterations 5
time step continuity errors : sum local = 0.6374781432, global = 0.09904586572, cumulative = 0.08987728049
DILUPBiCGStab:  Solving for omega, Initial residual = 0.001406253843, Final residual = 6.07790333e-06, No Iterations 1
DILUPBiCGStab:  Solving for k, Initial residual = 0.01238283106, Final residual = 6.102303819e-05, No Iterations 1
ExecutionTime = 0.88 s  ClockTime = 1 s

Time = 27

DILUPBiCGStab:  Solving for Ux, Initial residual = 0.01819916885, Final residual = 4.945916567e-05, No Iterations 2
DILUPBiCGStab:  Solving for Uy, Initial residual = 0.03776117727, Final residual = 0.000137130538, No Iterations 2
GAMG:  Solving for p, Initial residual = 0.06227711348, Final residual = 0.0001925289211, No Iterations 5
time step continuity errors : sum local = 0.6526197521, global = 0.100632172, cumulative = 0.1905094525
DILUPBiCGStab:  Solving for omega, Initial residual = 0.001328214843, Final residual = 5.733266148e-06, No Iterations 1
DILUPBiCGStab:  Solving for k, Initial residual = 0.01158922808, Final residual = 5.588028703e-05, No Iterations 1
ExecutionTime = 0.91 s  ClockTime = 1 s

Time = 28

DILUPBiCGStab:  Solving for Ux, Initial residual = 0.01236222849, Final residual = 4.229633739e-05, No Iterations 2
DILUPBiCGStab:  Solving for Uy, Initial residual = 0.0373805245, Final residual = 7.351285554e-05, No Iterations 2
GAMG:  Solving for p, Initial residual = 0.07624728639, Final residual = 0.0003110340206, No Iterations 5
time step continuity errors : sum local = 0.857227199, global = 0.1446175603, cumulative = 0.3351270128
DILUPBiCGStab:  Solving for omega, Initial residual = 0.001260805689, Final residual = 5.33064097e-06, No Iterations 1
DILUPBiCGStab:  Solving for k, Initial residual = 0.01086430494, Final residual = 5.11220236e-05, No Iterations 1
ExecutionTime = 0.93 s  ClockTime = 1 s

Time = 29

DILUPBiCGStab:  Solving for Ux, Initial residual = 0.01134774001, Final residual = 4.263984754e-05, No Iterations 2
DILUPBiCGStab:  Solving for Uy, Initial residual = 0.03666063, Final residual = 0.0002707422154, No Iterations 2
GAMG:  Solving for p, Initial residual = 0.09193670352, Final residual = 0.0003754653278, No Iterations 5
time step continuity errors : sum local = 0.8510871303, global = 0.1092551961, cumulative = 0.4443822089
DILUPBiCGStab:  Solving for omega, Initial residual = 0.001192099645, Final residual = 4.914005039e-06, No Iterations 1
DILUPBiCGStab:  Solving for k, Initial residual = 0.01019217797, Final residual = 4.689669695e-05, No Iterations 1
ExecutionTime = 0.97 s  ClockTime = 1 s

Time = 30

DILUPBiCGStab:  Solving for Ux, Initial residual = 0.01383779304, Final residual = 5.09116086e-05, No Iterations 2
DILUPBiCGStab:  Solving for Uy, Initial residual = 0.03559063244, Final residual = 0.0001841065899, No Iterations 2
GAMG:  Solving for p, Initial residual = 0.1049312182, Final residual = 0.00048517148, No Iterations 4
time step continuity errors : sum local = 0.9559217231, global = 0.07333740489, cumulative = 0.5177196138
DILUPBiCGStab:  Solving for omega, Initial residual = 0.00112069042, Final residual = 4.500117094e-06, No Iterations 1
DILUPBiCGStab:  Solving for k, Initial residual = 0.009546227645, Final residual = 4.310017525e-05, No Iterations 1
ExecutionTime = 1 s  ClockTime = 1 s

Time = 31

DILUPBiCGStab:  Solving for Ux, Initial residual = 0.0144249767, Final residual = 0.0001433128612, No Iterations 2
DILUPBiCGStab:  Solving for Uy, Initial residual = 0.03412540677, Final residual = 0.0001749060826, No Iterations 2
GAMG:  Solving for p, Initial residual = 0.106484841, Final residual = 0.0003127368423, No Iterations 4
time step continuity errors : sum local = 0.5995921483, global = 0.01352677799, cumulative = 0.5312463917
DILUPBiCGStab:  Solving for omega, Initial residual = 0.001054178003, Final residual = 4.118127853e-06, No Iterations 1
DILUPBiCGStab:  Solving for k, Initial residual = 0.008919954221, Final residual = 3.969869407e-05, No Iterations 1
ExecutionTime = 1.03 s  ClockTime = 1 s

Time = 32

DILUPBiCGStab:  Solving for Ux, Initial residual = 0.01330168452, Final residual = 4.305520953e-05, No Iterations 2
DILUPBiCGStab:  Solving for Uy, Initial residual = 0.03313053549, Final residual = 0.0001220744134, No Iterations 2
GAMG:  Solving for p, Initial residual = 0.09921756374, Final residual = 0.0003544100802, No Iterations 4
time step continuity errors : sum local = 0.7200791855, global = 0.04545629177, cumulative = 0.5767026835
DILUPBiCGStab:  Solving for omega, Initial residual = 0.0009848705583, Final residual = 3.802099673e-06, No Iterations 1
DILUPBiCGStab:  Solving for k, Initial residual = 0.008285294981, Final residual = 3.659857106e-05, No Iterations 1
ExecutionTime = 1.06 s  ClockTime = 1 s

Time = 33

DILUPBiCGStab:  Solving for Ux, Initial residual = 0.01079416057, Final residual = 8.331952283e-07, No Iterations 3
DILUPBiCGStab:  Solving for Uy, Initial residual = 0.03216070403, Final residual = 0.0001201777726, No Iterations 2
GAMG:  Solving for p, Initial residual = 0.08635857323, Final residual = 0.0002986266543, No Iterations 5
time step continuity errors : sum local = 0.686062191, global = -0.07746056354, cumulative = 0.49924212
DILUPBiCGStab:  Solving for omega, Initial residual = 0.0009194055636, Final residual = 3.526295048e-06, No Iterations 1
DILUPBiCGStab:  Solving for k, Initial residual = 0.007655952408, Final residual = 3.375075339e-05, No Iterations 1
ExecutionTime = 1.08 s  ClockTime = 1 s

Time = 34

DILUPBiCGStab:  Solving for Ux, Initial residual = 0.008343349945, Final residual = 1.47751698e-05, No Iterations 2
DILUPBiCGStab:  Solving for Uy, Initial residual = 0.03221887361, Final residual = 0.0001199350497, No Iterations 2
GAMG:  Solving for p, Initial residual = 0.07434994473, Final residual = 0.0002757630238, No Iterations 5
time step continuity errors : sum local = 0.7255624622, global = -0.1007450396, cumulative = 0.3984970804
DILUPBiCGStab:  Solving for omega, Initial residual = 0.0008582224461, Final residual = 3.305525918e-06, No Iterations 1
DILUPBiCGStab:  Solving for k, Initial residual = 0.007076196174, Final residual = 3.129045934e-05, No Iterations 1
ExecutionTime = 1.11 s  ClockTime = 1 s

Time = 35

DILUPBiCGStab:  Solving for Ux, Initial residual = 0.008854060971, Final residual = 6.987437173e-07, No Iterations 3
DILUPBiCGStab:  Solving for Uy, Initial residual = 0.03261298672, Final residual = 0.0001263742944, No Iterations 2
GAMG:  Solving for p, Initial residual = 0.06538187221, Final residual = 0.0002414659508, No Iterations 4
time step continuity errors : sum local = 0.7118030589, global = -0.00404506751, cumulative = 0.3944520129
DILUPBiCGStab:  Solving for omega, Initial residual = 0.0008077524658, Final residual = 3.14420642e-06, No Iterations 1
DILUPBiCGStab:  Solving for k, Initial residual = 0.00655315508, Final residual = 2.946406871e-05, No Iterations 1
ExecutionTime = 1.15 s  ClockTime = 1 s

Time = 36

DILUPBiCGStab:  Solving for Ux, Initial residual = 0.01013115853, Final residual = 8.300318163e-05, No Iterations 2
DILUPBiCGStab:  Solving for Uy, Initial residual = 0.03294990419, Final residual = 0.0001286177365, No Iterations 2
GAMG:  Solving for p, Initial residual = 0.0596336747, Final residual = 0.000199144601, No Iterations 4
time step continuity errors : sum local = 0.6337666154, global = -0.02886763856, cumulative = 0.3655843743
DILUPBiCGStab:  Solving for omega, Initial residual = 0.0007639599595, Final residual = 3.01988831e-06, No Iterations 1
DILUPBiCGStab:  Solving for k, Initial residual = 0.006088839671, Final residual = 2.815974914e-05, No Iterations 1
ExecutionTime = 1.18 s  ClockTime = 1 s

Time = 37

DILUPBiCGStab:  Solving for Ux, Initial residual = 0.01080272912, Final residual = 5.598324255e-05, No Iterations 2
DILUPBiCGStab:  Solving for Uy, Initial residual = 0.03274767677, Final residual = 0.0001260047667, No Iterations 2
GAMG:  Solving for p, Initial residual = 0.05668218706, Final residual = 0.0001160347537, No Iterations 5
time step continuity errors : sum local = 0.3832337024, global = 0.01973434733, cumulative = 0.3853187216
DILUPBiCGStab:  Solving for omega, Initial residual = 0.0007223533322, Final residual = 2.899007973e-06, No Iterations 1
DILUPBiCGStab:  Solving for k, Initial residual = 0.005699931547, Final residual = 2.71489095e-05, No Iterations 1
ExecutionTime = 1.21 s  ClockTime = 1 s

Time = 38

DILUPBiCGStab:  Solving for Ux, Initial residual = 0.01080147104, Final residual = 4.768114227e-05, No Iterations 2
DILUPBiCGStab:  Solving for Uy, Initial residual = 0.03184092052, Final residual = 0.0001203056791, No Iterations 2
GAMG:  Solving for p, Initial residual = 0.05554923816, Final residual = 0.0001654109441, No Iterations 4
time step continuity errors : sum local = 0.549625652, global = 0.02138538465, cumulative = 0.4067041063
DILUPBiCGStab:  Solving for omega, Initial residual = 0.0006809823677, Final residual = 2.771235393e-06, No Iterations 1
DILUPBiCGStab:  Solving for k, Initial residual = 0.005349719881, Final residual = 2.612854977e-05, No Iterations 1
ExecutionTime = 1.23 s  ClockTime = 1 s

Time = 39

DILUPBiCGStab:  Solving for Ux, Initial residual = 0.01028463017, Final residual = 4.960521363e-05, No Iterations 2
DILUPBiCGStab:  Solving for Uy, Initial residual = 0.03077890935, Final residual = 0.0001093908239, No Iterations 2
GAMG:  Solving for p, Initial residual = 0.05565314792, Final residual = 0.0001304248796, No Iterations 4
time step continuity errors : sum local = 0.4260800183, global = -0.03967220841, cumulative = 0.3670318979
DILUPBiCGStab:  Solving for omega, Initial residual = 0.0006451624138, Final residual = 2.643446917e-06, No Iterations 1
DILUPBiCGStab:  Solving for k, Initial residual = 0.005079236376, Final residual = 2.532264793e-05, No Iterations 1
ExecutionTime = 1.26 s  ClockTime = 1 s

Time = 40

DILUPBiCGStab:  Solving for Ux, Initial residual = 0.009293952046, Final residual = 7.377308805e-05, No Iterations 2
DILUPBiCGStab:  Solving for Uy, Initial residual = 0.02969347067, Final residual = 9.762413699e-05, No Iterations 2
GAMG:  Solving for p, Initial residual = 0.0571750074, Final residual = 0.0001578999771, No Iterations 4
time step continuity errors : sum local = 0.4951644184, global = -0.008666591308, cumulative = 0.3583653066
DILUPBiCGStab:  Solving for omega, Initial residual = 0.0006151615286, Final residual = 2.54628439e-06, No Iterations 1
DILUPBiCGStab:  Solving for k, Initial residual = 0.004873972094, Final residual = 2.46264968e-05, No Iterations 1
ExecutionTime = 1.29 s  ClockTime = 1 s

Time = 41

DILUPBiCGStab:  Solving for Ux, Initial residual = 0.008240389458, Final residual = 4.557820905e-05, No Iterations 2
DILUPBiCGStab:  Solving for Uy, Initial residual = 0.02868770166, Final residual = 8.899938147e-05, No Iterations 2
GAMG:  Solving for p, Initial residual = 0.05937055906, Final residual = 0.0001682383106, No Iterations 4
time step continuity errors : sum local = 0.5008364149, global = 0.00544725126, cumulative = 0.3638125578
DILUPBiCGStab:  Solving for omega, Initial residual = 0.0005888564788, Final residual = 2.450860783e-06, No Iterations 1
DILUPBiCGStab:  Solving for k, Initial residual = 0.004713202239, Final residual = 2.39565445e-05, No Iterations 1
ExecutionTime = 1.32 s  ClockTime = 1 s

Time = 42

DILUPBiCGStab:  Solving for Ux, Initial residual = 0.007329480135, Final residual = 3.340234154e-05, No Iterations 2
DILUPBiCGStab:  Solving for Uy, Initial residual = 0.02815591449, Final residual = 8.304267158e-05, No Iterations 2
GAMG:  Solving for p, Initial residual = 0.06140188577, Final residual = 0.0001723508476, No Iterations 4
time step continuity errors : sum local = 0.487940146, global = 0.02273879165, cumulative = 0.3865513495
DILUPBiCGStab:  Solving for omega, Initial residual = 0.0005651153797, Final residual = 2.356099705e-06, No Iterations 1
DILUPBiCGStab:  Solving for k, Initial residual = 0.004571443327, Final residual = 2.334200136e-05, No Iterations 1
ExecutionTime = 1.34 s  ClockTime = 1 s

Time = 43

DILUPBiCGStab:  Solving for Ux, Initial residual = 0.006669350377, Final residual = 1.044490604e-05, No Iterations 2
DILUPBiCGStab:  Solving for Uy, Initial residual = 0.02823042745, Final residual = 8.271484227e-05, No Iterations 2
GAMG:  Solving for p, Initial residual = 0.06272244911, Final residual = 0.0002275851944, No Iterations 4
time step continuity errors : sum local = 0.6216835096, global = -0.04890511497, cumulative = 0.3376462345
DILUPBiCGStab:  Solving for omega, Initial residual = 0.0005450752415, Final residual = 2.272168378e-06, No Iterations 1
DILUPBiCGStab:  Solving for k, Initial residual = 0.004444304445, Final residual = 2.253146198e-05, No Iterations 1
ExecutionTime = 1.38 s  ClockTime = 1 s

Time = 44

DILUPBiCGStab:  Solving for Ux, Initial residual = 0.006290277331, Final residual = 5.424060659e-05, No Iterations 2
DILUPBiCGStab:  Solving for Uy, Initial residual = 0.0282369733, Final residual = 8.535865645e-05, No Iterations 2
GAMG:  Solving for p, Initial residual = 0.06286764285, Final residual = 0.0002843464251, No Iterations 4
time step continuity errors : sum local = 0.7644532167, global = -0.02513941756, cumulative = 0.312506817
DILUPBiCGStab:  Solving for omega, Initial residual = 0.0005235031434, Final residual = 2.165197176e-06, No Iterations 1
DILUPBiCGStab:  Solving for k, Initial residual = 0.004300411124, Final residual = 2.144927111e-05, No Iterations 1
ExecutionTime = 1.4 s  ClockTime = 1 s

Time = 45

DILUPBiCGStab:  Solving for Ux, Initial residual = 0.00612990422, Final residual = 5.184888191e-05, No Iterations 2
DILUPBiCGStab:  Solving for Uy, Initial residual = 0.02823865696, Final residual = 8.848277821e-05, No Iterations 2
GAMG:  Solving for p, Initial residual = 0.06217267338, Final residual = 0.0002119816039, No Iterations 4
time step continuity errors : sum local = 0.5695757529, global = -0.01712405287, cumulative = 0.2953827641
DILUPBiCGStab:  Solving for omega, Initial residual = 0.0005058115107, Final residual = 2.093820613e-06, No Iterations 1
DILUPBiCGStab:  Solving for k, Initial residual = 0.00414533638, Final residual = 2.039583327e-05, No Iterations 1
ExecutionTime = 1.44 s  ClockTime = 1 s

Time = 46

DILUPBiCGStab:  Solving for Ux, Initial residual = 0.00605439631, Final residual = 5.900928457e-05, No Iterations 2
DILUPBiCGStab:  Solving for Uy, Initial residual = 0.02831307156, Final residual = 9.1037996e-05, No Iterations 2
GAMG:  Solving for p, Initial residual = 0.06063052746, Final residual = 0.0001732702347, No Iterations 4
time step continuity errors : sum local = 0.4720406866, global = -0.04042799677, cumulative = 0.2549547673
DILUPBiCGStab:  Solving for omega, Initial residual = 0.000489553401, Final residual = 2.035668506e-06, No Iterations 1
DILUPBiCGStab:  Solving for k, Initial residual = 0.00398772124, Final residual = 1.934508287e-05, No Iterations 1
ExecutionTime = 1.46 s  ClockTime = 1 s

Time = 47

DILUPBiCGStab:  Solving for Ux, Initial residual = 0.006047196489, Final residual = 1.163714037e-05, No Iterations 2
DILUPBiCGStab:  Solving for Uy, Initial residual = 0.02807951382, Final residual = 9.135953443e-05, No Iterations 2
GAMG:  Solving for p, Initial residual = 0.05857338416, Final residual = 0.0001323790625, No Iterations 4
time step continuity errors : sum local = 0.3690901725, global = 0.01325444751, cumulative = 0.2682092148
DILUPBiCGStab:  Solving for omega, Initial residual = 0.0004733062521, Final residual = 1.981337212e-06, No Iterations 1
DILUPBiCGStab:  Solving for k, Initial residual = 0.003828387712, Final residual = 1.827612834e-05, No Iterations 1
ExecutionTime = 1.49 s  ClockTime = 1 s

Time = 48

DILUPBiCGStab:  Solving for Ux, Initial residual = 0.006110370046, Final residual = 2.636044694e-05, No Iterations 2
DILUPBiCGStab:  Solving for Uy, Initial residual = 0.02771890392, Final residual = 8.957931462e-05, No Iterations 2
GAMG:  Solving for p, Initial residual = 0.05619109541, Final residual = 0.0001175280047, No Iterations 4
time step continuity errors : sum local = 0.3372257943, global = -0.008817378433, cumulative = 0.2593918364
DILUPBiCGStab:  Solving for omega, Initial residual = 0.0004579826006, Final residual = 1.924057573e-06, No Iterations 1
DILUPBiCGStab:  Solving for k, Initial residual = 0.00367405784, Final residual = 1.727469127e-05, No Iterations 1
ExecutionTime = 1.52 s  ClockTime = 1 s

Time = 49

DILUPBiCGStab:  Solving for Ux, Initial residual = 0.006197933146, Final residual = 4.225865122e-07, No Iterations 3
DILUPBiCGStab:  Solving for Uy, Initial residual = 0.02718845846, Final residual = 8.662062203e-05, No Iterations 2
GAMG:  Solving for p, Initial residual = 0.05416838182, Final residual = 0.0001360736114, No Iterations 4
time step continuity errors : sum local = 0.4012274924, global = -0.01739166831, cumulative = 0.2420001681
DILUPBiCGStab:  Solving for omega, Initial residual = 0.0004452948939, Final residual = 1.882508148e-06, No Iterations 1
DILUPBiCGStab:  Solving for k, Initial residual = 0.003526919359, Final residual = 1.641899931e-05, No Iterations 1
ExecutionTime = 1.54 s  ClockTime = 1 s

Time = 50

DILUPBiCGStab:  Solving for Ux, Initial residual = 0.006248418916, Final residual = 2.33580864e-05, No Iterations 2
DILUPBiCGStab:  Solving for Uy, Initial residual = 0.02675233586, Final residual = 8.30991006e-05, No Iterations 2
GAMG:  Solving for p, Initial residual = 0.0525685919, Final residual = 0.0002234289242, No Iterations 4
time step continuity errors : sum local = 0.6723593623, global = 0.08221135251, cumulative = 0.3242115206
DILUPBiCGStab:  Solving for omega, Initial residual = 0.0004329524945, Final residual = 1.842012689e-06, No Iterations 1
DILUPBiCGStab:  Solving for k, Initial residual = 0.003400344422, Final residual = 1.573251053e-05, No Iterations 1
ExecutionTime = 1.58 s  ClockTime = 1 s

Time = 51

DILUPBiCGStab:  Solving for Ux, Initial residual = 0.006230952814, Final residual = 1.384488046e-05, No Iterations 2
DILUPBiCGStab:  Solving for Uy, Initial residual = 0.02632624764, Final residual = 7.91933045e-05, No Iterations 2
GAMG:  Solving for p, Initial residual = 0.05126098602, Final residual = 0.0001534664606, No Iterations 4
time step continuity errors : sum local = 0.4679230432, global = -0.001548838246, cumulative = 0.3226626823
DILUPBiCGStab:  Solving for omega, Initial residual = 0.0004208328462, Final residual = 1.798772006e-06, No Iterations 1
DILUPBiCGStab:  Solving for k, Initial residual = 0.003289131622, Final residual = 1.515367997e-05, No Iterations 1
ExecutionTime = 1.6 s  ClockTime = 1 s

Time = 52

DILUPBiCGStab:  Solving for Ux, Initial residual = 0.006145267356, Final residual = 5.406724585e-05, No Iterations 2
DILUPBiCGStab:  Solving for Uy, Initial residual = 0.02572935031, Final residual = 7.567743475e-05, No Iterations 2
GAMG:  Solving for p, Initial residual = 0.05029374114, Final residual = 0.000250622901, No Iterations 3
time step continuity errors : sum local = 0.768289321, global = 0.131461367, cumulative = 0.4541240493
DILUPBiCGStab:  Solving for omega, Initial residual = 0.0004079737428, Final residual = 1.754088758e-06, No Iterations 1
DILUPBiCGStab:  Solving for k, Initial residual = 0.003190595892, Final residual = 1.46197063e-05, No Iterations 1
ExecutionTime = 1.63 s  ClockTime = 1 s

Time = 53

DILUPBiCGStab:  Solving for Ux, Initial residual = 0.00604122177, Final residual = 4.759714351e-05, No Iterations 2
DILUPBiCGStab:  Solving for Uy, Initial residual = 0.0252745255, Final residual = 7.253949145e-05, No Iterations 2
GAMG:  Solving for p, Initial residual = 0.0495786499, Final residual = 0.0001293321017, No Iterations 4
time step continuity errors : sum local = 0.396808181, global = 0.06858887317, cumulative = 0.5227129225
DILUPBiCGStab:  Solving for omega, Initial residual = 0.0003954074079, Final residual = 1.696105257e-06, No Iterations 1
DILUPBiCGStab:  Solving for k, Initial residual = 0.003108309189, Final residual = 1.41207114e-05, No Iterations 1
ExecutionTime = 1.65 s  ClockTime = 1 s

Time = 54

DILUPBiCGStab:  Solving for Ux, Initial residual = 0.005829370681, Final residual = 5.241014085e-05, No Iterations 2
DILUPBiCGStab:  Solving for Uy, Initial residual = 0.02466585435, Final residual = 7.010358246e-05, No Iterations 2
GAMG:  Solving for p, Initial residual = 0.04930093871, Final residual = 0.0001106980582, No Iterations 4
time step continuity errors : sum local = 0.3367742861, global = 0.04613293727, cumulative = 0.5688458598
DILUPBiCGStab:  Solving for omega, Initial residual = 0.0003831378248, Final residual = 1.62719411e-06, No Iterations 1
DILUPBiCGStab:  Solving for k, Initial residual = 0.003036259948, Final residual = 1.364189926e-05, No Iterations 1
ExecutionTime = 1.69 s  ClockTime = 1 s

Time = 55

DILUPBiCGStab:  Solving for Ux, Initial residual = 0.005588538764, Final residual = 1.129395642e-05, No Iterations 2
DILUPBiCGStab:  Solving for Uy, Initial residual = 0.02415777246, Final residual = 6.941081005e-05, No Iterations 2
GAMG:  Solving for p, Initial residual = 0.04928507073, Final residual = 0.0001038520407, No Iterations 4
time step continuity errors : sum local = 0.3120511903, global = 0.01545419712, cumulative = 0.5843000569
DILUPBiCGStab:  Solving for omega, Initial residual = 0.0003705191024, Final residual = 1.555640515e-06, No Iterations 1
DILUPBiCGStab:  Solving for k, Initial residual = 0.002967281133, Final residual = 1.309002682e-05, No Iterations 1
ExecutionTime = 1.71 s  ClockTime = 2 s

Time = 56

DILUPBiCGStab:  Solving for Ux, Initial residual = 0.005338674542, Final residual = 1.26073255e-05, No Iterations 2
DILUPBiCGStab:  Solving for Uy, Initial residual = 0.02399980307, Final residual = 6.88509191e-05, No Iterations 2
GAMG:  Solving for p, Initial residual = 0.04946700831, Final residual = 0.0001134044266, No Iterations 4
time step continuity errors : sum local = 0.336086442, global = 0.008111232358, cumulative = 0.5924112892
DILUPBiCGStab:  Solving for omega, Initial residual = 0.0003602785186, Final residual = 1.520577373e-06, No Iterations 1
DILUPBiCGStab:  Solving for k, Initial residual = 0.002904369819, Final residual = 1.268704513e-05, No Iterations 1
ExecutionTime = 1.75 s  ClockTime = 2 s

Time = 57

DILUPBiCGStab:  Solving for Ux, Initial residual = 0.005123103495, Final residual = 1.515160698e-05, No Iterations 2
DILUPBiCGStab:  Solving for Uy, Initial residual = 0.02383986558, Final residual = 6.84267306e-05, No Iterations 2
GAMG:  Solving for p, Initial residual = 0.0496396785, Final residual = 0.0001860586436, No Iterations 4
time step continuity errors : sum local = 0.5446613919, global = -0.03102991869, cumulative = 0.5613813705
DILUPBiCGStab:  Solving for omega, Initial residual = 0.0003505228145, Final residual = 1.485880267e-06, No Iterations 1
DILUPBiCGStab:  Solving for k, Initial residual = 0.002848389581, Final residual = 1.237853093e-05, No Iterations 1
ExecutionTime = 1.77 s  ClockTime = 2 s

Time = 58

DILUPBiCGStab:  Solving for Ux, Initial residual = 0.004936484937, Final residual = 1.824303246e-05, No Iterations 2
DILUPBiCGStab:  Solving for Uy, Initial residual = 0.02357785801, Final residual = 6.75593545e-05, No Iterations 2
GAMG:  Solving for p, Initial residual = 0.04969086845, Final residual = 0.0002140997066, No Iterations 3
time step continuity errors : sum local = 0.6208421534, global = 0.0693460692, cumulative = 0.6307274397
DILUPBiCGStab:  Solving for omega, Initial residual = 0.0003412304376, Final residual = 1.45287494e-06, No Iterations 1
DILUPBiCGStab:  Solving for k, Initial residual = 0.002792464591, Final residual = 1.210325183e-05, No Iterations 1
ExecutionTime = 1.81 s  ClockTime = 2 s

Time = 59

DILUPBiCGStab:  Solving for Ux, Initial residual = 0.004817900397, Final residual = 1.634837259e-05, No Iterations 2
DILUPBiCGStab:  Solving for Uy, Initial residual = 0.02343566785, Final residual = 6.637157126e-05, No Iterations 2
GAMG:  Solving for p, Initial residual = 0.04919664674, Final residual = 0.0002112503228, No Iterations 3
time step continuity errors : sum local = 0.6122953266, global = -0.02384231105, cumulative = 0.6068851287
DILUPBiCGStab:  Solving for omega, Initial residual = 0.0003325209531, Final residual = 1.42061042e-06, No Iterations 1
DILUPBiCGStab:  Solving for k, Initial residual = 0.00273113212, Final residual = 1.183691633e-05, No Iterations 1
ExecutionTime = 1.83 s  ClockTime = 2 s

Time = 60

DILUPBiCGStab:  Solving for Ux, Initial residual = 0.004712503194, Final residual = 1.501792271e-05, No Iterations 2
DILUPBiCGStab:  Solving for Uy, Initial residual = 0.02321942704, Final residual = 6.538887177e-05, No Iterations 2
GAMG:  Solving for p, Initial residual = 0.04868326687, Final residual = 0.0002360307719, No Iterations 3
time step continuity errors : sum local = 0.6846162416, global = -0.06900297875, cumulative = 0.53788215
DILUPBiCGStab:  Solving for omega, Initial residual = 0.0003242112083, Final residual = 1.393277519e-06, No Iterations 1
DILUPBiCGStab:  Solving for k, Initial residual = 0.002669902115, Final residual = 1.160465237e-05, No Iterations 1
ExecutionTime = 1.86 s  ClockTime = 2 s

Time = 61

DILUPBiCGStab:  Solving for Ux, Initial residual = 0.004608285442, Final residual = 1.327264225e-05, No Iterations 2
DILUPBiCGStab:  Solving for Uy, Initial residual = 0.02293012751, Final residual = 6.446118783e-05, No Iterations 2
GAMG:  Solving for p, Initial residual = 0.04818521851, Final residual = 0.0001271660755, No Iterations 4
time step continuity errors : sum local = 0.3695746662, global = -0.04223658471, cumulative = 0.4956455652
DILUPBiCGStab:  Solving for omega, Initial residual = 0.0003154423265, Final residual = 1.369299036e-06, No Iterations 1
DILUPBiCGStab:  Solving for k, Initial residual = 0.002604247915, Final residual = 1.127626607e-05, No Iterations 1
ExecutionTime = 1.88 s  ClockTime = 2 s

Time = 62

DILUPBiCGStab:  Solving for Ux, Initial residual = 0.004512488791, Final residual = 1.019710813e-05, No Iterations 2
DILUPBiCGStab:  Solving for Uy, Initial residual = 0.02257011135, Final residual = 6.263148125e-05, No Iterations 2
GAMG:  Solving for p, Initial residual = 0.04741311858, Final residual = 0.0001057549691, No Iterations 4
time step continuity errors : sum local = 0.3090628082, global = -0.03363995066, cumulative = 0.4620056146
DILUPBiCGStab:  Solving for omega, Initial residual = 0.0003082496464, Final residual = 1.351357601e-06, No Iterations 1
DILUPBiCGStab:  Solving for k, Initial residual = 0.002543717718, Final residual = 1.098594944e-05, No Iterations 1
ExecutionTime = 1.91 s  ClockTime = 2 s

Time = 63

DILUPBiCGStab:  Solving for Ux, Initial residual = 0.00446886422, Final residual = 8.625118052e-06, No Iterations 2
DILUPBiCGStab:  Solving for Uy, Initial residual = 0.02227651846, Final residual = 6.132376448e-05, No Iterations 2
GAMG:  Solving for p, Initial residual = 0.04652594971, Final residual = 0.0002177556847, No Iterations 3
time step continuity errors : sum local = 0.6411628292, global = -0.08087639694, cumulative = 0.3811292176
DILUPBiCGStab:  Solving for omega, Initial residual = 0.0003022864745, Final residual = 1.332316183e-06, No Iterations 1
DILUPBiCGStab:  Solving for k, Initial residual = 0.002489204975, Final residual = 1.071289023e-05, No Iterations 1
ExecutionTime = 1.94 s  ClockTime = 2 s

Time = 64

DILUPBiCGStab:  Solving for Ux, Initial residual = 0.004417699757, Final residual = 4.153808071e-05, No Iterations 2
DILUPBiCGStab:  Solving for Uy, Initial residual = 0.02210025257, Final residual = 6.107456509e-05, No Iterations 2
GAMG:  Solving for p, Initial residual = 0.04581419627, Final residual = 0.000223149771, No Iterations 3
time step continuity errors : sum local = 0.6598102365, global = -0.06817731789, cumulative = 0.3129518998
DILUPBiCGStab:  Solving for omega, Initial residual = 0.0002946592933, Final residual = 1.308031356e-06, No Iterations 1
DILUPBiCGStab:  Solving for k, Initial residual = 0.00243031365, Final residual = 1.038826478e-05, No Iterations 1
ExecutionTime = 1.97 s  ClockTime = 2 s

Time = 65

DILUPBiCGStab:  Solving for Ux, Initial residual = 0.004350117974, Final residual = 3.30460979e-05, No Iterations 2
DILUPBiCGStab:  Solving for Uy, Initial residual = 0.02171087771, Final residual = 5.948108122e-05, No Iterations 2
GAMG:  Solving for p, Initial residual = 0.04502804417, Final residual = 0.0001020894017, No Iterations 4
time step continuity errors : sum local = 0.3034986189, global = -0.00554610897, cumulative = 0.3074057908
DILUPBiCGStab:  Solving for omega, Initial residual = 0.0002871201959, Final residual = 1.294878316e-06, No Iterations 1
DILUPBiCGStab:  Solving for k, Initial residual = 0.002371828533, Final residual = 1.00570005e-05, No Iterations 1
ExecutionTime = 2 s  ClockTime = 2 s

Time = 66

DILUPBiCGStab:  Solving for Ux, Initial residual = 0.004271545349, Final residual = 2.467725019e-05, No Iterations 2
DILUPBiCGStab:  Solving for Uy, Initial residual = 0.02125701298, Final residual = 5.651274453e-05, No Iterations 2
GAMG:  Solving for p, Initial residual = 0.04407044158, Final residual = 0.0001719621947, No Iterations 3
time step continuity errors : sum local = 0.5161420838, global = -0.114954388, cumulative = 0.1924514027
DILUPBiCGStab:  Solving for omega, Initial residual = 0.0002804324246, Final residual = 1.278596682e-06, No Iterations 1
DILUPBiCGStab:  Solving for k, Initial residual = 0.002315734255, Final residual = 9.783763692e-06, No Iterations 1
ExecutionTime = 2.02 s  ClockTime = 2 s

Time = 67

DILUPBiCGStab:  Solving for Ux, Initial residual = 0.0041893236, Final residual = 2.495192839e-05, No Iterations 2
DILUPBiCGStab:  Solving for Uy, Initial residual = 0.0209633769, Final residual = 5.589207249e-05, No Iterations 2
GAMG:  Solving for p, Initial residual = 0.04342763829, Final residual = 0.0001581020012, No Iterations 3
time step continuity errors : sum local = 0.4760261535, global = -0.09561544902, cumulative = 0.09683595372
DILUPBiCGStab:  Solving for omega, Initial residual = 0.0002736680806, Final residual = 1.260582112e-06, No Iterations 1
DILUPBiCGStab:  Solving for k, Initial residual = 0.002264313055, Final residual = 9.599039589e-06, No Iterations 1
ExecutionTime = 2.05 s  ClockTime = 2 s

Time = 68

DILUPBiCGStab:  Solving for Ux, Initial residual = 0.004102976543, Final residual = 2.130446816e-05, No Iterations 2
DILUPBiCGStab:  Solving for Uy, Initial residual = 0.02070054486, Final residual = 5.450613834e-05, No Iterations 2
GAMG:  Solving for p, Initial residual = 0.04287029059, Final residual = 0.0001617563238, No Iterations 3
time step continuity errors : sum local = 0.487996938, global = -0.05541259823, cumulative = 0.04142335549
DILUPBiCGStab:  Solving for omega, Initial residual = 0.0002672312538, Final residual = 1.244706567e-06, No Iterations 1
DILUPBiCGStab:  Solving for k, Initial residual = 0.002215812457, Final residual = 9.387470831e-06, No Iterations 1
ExecutionTime = 2.08 s  ClockTime = 2 s

Time = 69

DILUPBiCGStab:  Solving for Ux, Initial residual = 0.004019108661, Final residual = 1.947371501e-05, No Iterations 2
DILUPBiCGStab:  Solving for Uy, Initial residual = 0.0205940808, Final residual = 5.295618324e-05, No Iterations 2
GAMG:  Solving for p, Initial residual = 0.0423034604, Final residual = 0.0001708300818, No Iterations 3
time step continuity errors : sum local = 0.5162785334, global = -0.01304504745, cumulative = 0.02837830804
DILUPBiCGStab:  Solving for omega, Initial residual = 0.0002607531229, Final residual = 1.225287931e-06, No Iterations 1
DILUPBiCGStab:  Solving for k, Initial residual = 0.002166406399, Final residual = 9.200095651e-06, No Iterations 1
ExecutionTime = 2.11 s  ClockTime = 2 s

Time = 70

DILUPBiCGStab:  Solving for Ux, Initial residual = 0.003935197519, Final residual = 1.823977867e-05, No Iterations 2
DILUPBiCGStab:  Solving for Uy, Initial residual = 0.02034681289, Final residual = 5.199886548e-05, No Iterations 2
GAMG:  Solving for p, Initial residual = 0.04182478853, Final residual = 0.0001874044055, No Iterations 3
time step continuity errors : sum local = 0.5672603384, global = 0.01466308924, cumulative = 0.04304139727
DILUPBiCGStab:  Solving for omega, Initial residual = 0.0002539202054, Final residual = 1.198717809e-06, No Iterations 1
DILUPBiCGStab:  Solving for k, Initial residual = 0.002113393881, Final residual = 9.021838646e-06, No Iterations 1
ExecutionTime = 2.13 s  ClockTime = 2 s

Time = 71

DILUPBiCGStab:  Solving for Ux, Initial residual = 0.003852180885, Final residual = 1.681649431e-05, No Iterations 2
DILUPBiCGStab:  Solving for Uy, Initial residual = 0.02017695082, Final residual = 5.114079804e-05, No Iterations 2
GAMG:  Solving for p, Initial residual = 0.04135894438, Final residual = 0.0001076003596, No Iterations 4
time step continuity errors : sum local = 0.3260352884, global = 0.05055289686, cumulative = 0.09359429413
DILUPBiCGStab:  Solving for omega, Initial residual = 0.0002479778216, Final residual = 1.177045969e-06, No Iterations 1
DILUPBiCGStab:  Solving for k, Initial residual = 0.002066079162, Final residual = 8.908872448e-06, No Iterations 1
ExecutionTime = 2.16 s  ClockTime = 2 s

Time = 72

DILUPBiCGStab:  Solving for Ux, Initial residual = 0.003749277814, Final residual = 1.570818831e-05, No Iterations 2
DILUPBiCGStab:  Solving for Uy, Initial residual = 0.02003796491, Final residual = 5.050161748e-05, No Iterations 2
GAMG:  Solving for p, Initial residual = 0.04099902911, Final residual = 0.0001814506635, No Iterations 3
time step continuity errors : sum local = 0.5492092437, global = 0.04074153511, cumulative = 0.1343358292
DILUPBiCGStab:  Solving for omega, Initial residual = 0.000242506628, Final residual = 1.163766802e-06, No Iterations 1
DILUPBiCGStab:  Solving for k, Initial residual = 0.002021759989, Final residual = 8.848968647e-06, No Iterations 1
ExecutionTime = 2.18 s  ClockTime = 2 s

Time = 73

DILUPBiCGStab:  Solving for Ux, Initial residual = 0.003684264222, Final residual = 1.414674374e-05, No Iterations 2
DILUPBiCGStab:  Solving for Uy, Initial residual = 0.01982677513, Final residual = 4.96378316e-05, No Iterations 2
GAMG:  Solving for p, Initial residual = 0.04060930603, Final residual = 0.0001877645402, No Iterations 3
time step continuity errors : sum local = 0.5678968075, global = 0.01347550396, cumulative = 0.1478113332
DILUPBiCGStab:  Solving for omega, Initial residual = 0.0002367459245, Final residual = 1.144764813e-06, No Iterations 1
DILUPBiCGStab:  Solving for k, Initial residual = 0.00198163221, Final residual = 8.839678069e-06, No Iterations 1
ExecutionTime = 2.21 s  ClockTime = 2 s

Time = 74

DILUPBiCGStab:  Solving for Ux, Initial residual = 0.003626921902, Final residual = 1.384399998e-05, No Iterations 2
DILUPBiCGStab:  Solving for Uy, Initial residual = 0.01968768714, Final residual = 4.912002936e-05, No Iterations 2
GAMG:  Solving for p, Initial residual = 0.04033650785, Final residual = 0.0001885608887, No Iterations 3
time step continuity errors : sum local = 0.5689021315, global = -0.0008697311555, cumulative = 0.1469416021
DILUPBiCGStab:  Solving for omega, Initial residual = 0.0002318706776, Final residual = 1.130051649e-06, No Iterations 1
DILUPBiCGStab:  Solving for k, Initial residual = 0.001940757317, Final residual = 8.818443717e-06, No Iterations 1
ExecutionTime = 2.24 s  ClockTime = 2 s

Time = 75

DILUPBiCGStab:  Solving for Ux, Initial residual = 0.00354949873, Final residual = 1.340161789e-05, No Iterations 2
DILUPBiCGStab:  Solving for Uy, Initial residual = 0.01949705428, Final residual = 4.858231697e-05, No Iterations 2
GAMG:  Solving for p, Initial residual = 0.04013743376, Final residual = 0.0001946614924, No Iterations 3
time step continuity errors : sum local = 0.5849072006, global = 0.005794775603, cumulative = 0.1527363777
DILUPBiCGStab:  Solving for omega, Initial residual = 0.0002264625016, Final residual = 1.112389885e-06, No Iterations 1
DILUPBiCGStab:  Solving for k, Initial residual = 0.001897294664, Final residual = 8.802882359e-06, No Iterations 1
ExecutionTime = 2.27 s  ClockTime = 2 s

Time = 76

DILUPBiCGStab:  Solving for Ux, Initial residual = 0.003452344482, Final residual = 1.298598437e-05, No Iterations 2
DILUPBiCGStab:  Solving for Uy, Initial residual = 0.01907738616, Final residual = 4.771696426e-05, No Iterations 2
GAMG:  Solving for p, Initial residual = 0.03990452071, Final residual = 7.733885476e-05, No Iterations 4
time step continuity errors : sum local = 0.2312475428, global = 0.0157323144, cumulative = 0.1684686921
DILUPBiCGStab:  Solving for omega, Initial residual = 0.0002214891654, Final residual = 1.097101343e-06, No Iterations 1
DILUPBiCGStab:  Solving for k, Initial residual = 0.001856864041, Final residual = 8.816031247e-06, No Iterations 1
ExecutionTime = 2.3 s  ClockTime = 2 s

Time = 77

DILUPBiCGStab:  Solving for Ux, Initial residual = 0.003331404446, Final residual = 1.288204881e-05, No Iterations 2
DILUPBiCGStab:  Solving for Uy, Initial residual = 0.01874084032, Final residual = 4.647005299e-05, No Iterations 2
GAMG:  Solving for p, Initial residual = 0.03976561935, Final residual = 0.0001607056694, No Iterations 3
time step continuity errors : sum local = 0.4774476786, global = 0.0789854203, cumulative = 0.2474541124
DILUPBiCGStab:  Solving for omega, Initial residual = 0.0002168859947, Final residual = 1.084986431e-06, No Iterations 1
DILUPBiCGStab:  Solving for k, Initial residual = 0.001819185637, Final residual = 8.803534685e-06, No Iterations 1
ExecutionTime = 2.32 s  ClockTime = 2 s

Time = 78

DILUPBiCGStab:  Solving for Ux, Initial residual = 0.003250531334, Final residual = 1.184410124e-05, No Iterations 2
DILUPBiCGStab:  Solving for Uy, Initial residual = 0.01855550522, Final residual = 4.485893169e-05, No Iterations 2
GAMG:  Solving for p, Initial residual = 0.03944847696, Final residual = 0.0001119100937, No Iterations 3
time step continuity errors : sum local = 0.3318710122, global = 0.08092026756, cumulative = 0.3283743799
DILUPBiCGStab:  Solving for omega, Initial residual = 0.0002120365215, Final residual = 1.07002722e-06, No Iterations 1
DILUPBiCGStab:  Solving for k, Initial residual = 0.001781644742, Final residual = 8.758394373e-06, No Iterations 1
ExecutionTime = 2.35 s  ClockTime = 2 s

Time = 79

DILUPBiCGStab:  Solving for Ux, Initial residual = 0.003184028162, Final residual = 1.123470324e-05, No Iterations 2
DILUPBiCGStab:  Solving for Uy, Initial residual = 0.01829162975, Final residual = 4.336531029e-05, No Iterations 2
GAMG:  Solving for p, Initial residual = 0.03908716164, Final residual = 9.984679097e-05, No Iterations 3
time step continuity errors : sum local = 0.295868023, global = 0.05470551192, cumulative = 0.3830798918
DILUPBiCGStab:  Solving for omega, Initial residual = 0.0002069692, Final residual = 1.052278633e-06, No Iterations 1
DILUPBiCGStab:  Solving for k, Initial residual = 0.001743323767, Final residual = 8.701492121e-06, No Iterations 1
ExecutionTime = 2.37 s  ClockTime = 2 s

Time = 80

DILUPBiCGStab:  Solving for Ux, Initial residual = 0.003120642238, Final residual = 1.054646878e-05, No Iterations 2
DILUPBiCGStab:  Solving for Uy, Initial residual = 0.01808240657, Final residual = 4.215283364e-05, No Iterations 2
GAMG:  Solving for p, Initial residual = 0.03871250791, Final residual = 0.0001027882302, No Iterations 3
time step continuity errors : sum local = 0.3045483205, global = 0.02543557609, cumulative = 0.4085154679
DILUPBiCGStab:  Solving for omega, Initial residual = 0.0002027328315, Final residual = 1.034720651e-06, No Iterations 1
DILUPBiCGStab:  Solving for k, Initial residual = 0.001707340299, Final residual = 8.664306048e-06, No Iterations 1
ExecutionTime = 2.4 s  ClockTime = 2 s

Time = 81

DILUPBiCGStab:  Solving for Ux, Initial residual = 0.003052979562, Final residual = 9.913869233e-06, No Iterations 2
DILUPBiCGStab:  Solving for Uy, Initial residual = 0.01797700426, Final residual = 4.123164634e-05, No Iterations 2
GAMG:  Solving for p, Initial residual = 0.03825311184, Final residual = 0.0001034798031, No Iterations 3
time step continuity errors : sum local = 0.3066343488, global = 0.001519534087, cumulative = 0.410035002
DILUPBiCGStab:  Solving for omega, Initial residual = 0.0001991344539, Final residual = 1.013839225e-06, No Iterations 1
DILUPBiCGStab:  Solving for k, Initial residual = 0.00167331022, Final residual = 8.587891597e-06, No Iterations 1
ExecutionTime = 2.43 s  ClockTime = 2 s

Time = 82

DILUPBiCGStab:  Solving for Ux, Initial residual = 0.00298688745, Final residual = 9.456943227e-06, No Iterations 2
DILUPBiCGStab:  Solving for Uy, Initial residual = 0.01762806788, Final residual = 4.047548743e-05, No Iterations 2
GAMG:  Solving for p, Initial residual = 0.03778171686, Final residual = 0.0001008053537, No Iterations 3
time step continuity errors : sum local = 0.2987939155, global = -0.01653646273, cumulative = 0.3934985393
DILUPBiCGStab:  Solving for omega, Initial residual = 0.0001936953414, Final residual = 9.862003197e-07, No Iterations 1
DILUPBiCGStab:  Solving for k, Initial residual = 0.001637200551, Final residual = 8.600669125e-06, No Iterations 1
ExecutionTime = 2.45 s  ClockTime = 2 s

Time = 83

DILUPBiCGStab:  Solving for Ux, Initial residual = 0.00293481596, Final residual = 9.085825993e-06, No Iterations 2
DILUPBiCGStab:  Solving for Uy, Initial residual = 0.017335135, Final residual = 3.974413267e-05, No Iterations 2
GAMG:  Solving for p, Initial residual = 0.03733461422, Final residual = 9.6517827e-05, No Iterations 3
time step continuity errors : sum local = 0.2861951284, global = -0.03047095222, cumulative = 0.3630275871
DILUPBiCGStab:  Solving for omega, Initial residual = 0.0001900445902, Final residual = 9.737493227e-07, No Iterations 1
DILUPBiCGStab:  Solving for k, Initial residual = 0.001608126738, Final residual = 8.525720059e-06, No Iterations 1
ExecutionTime = 2.48 s  ClockTime = 2 s

Time = 84

DILUPBiCGStab:  Solving for Ux, Initial residual = 0.002880097811, Final residual = 8.752882723e-06, No Iterations 2
DILUPBiCGStab:  Solving for Uy, Initial residual = 0.01714915847, Final residual = 3.888688892e-05, No Iterations 2
GAMG:  Solving for p, Initial residual = 0.03689813973, Final residual = 9.208176706e-05, No Iterations 3
time step continuity errors : sum local = 0.2730804365, global = -0.04202413143, cumulative = 0.3210034556
DILUPBiCGStab:  Solving for omega, Initial residual = 0.0001859974673, Final residual = 9.548445064e-07, No Iterations 1
DILUPBiCGStab:  Solving for k, Initial residual = 0.001578204268, Final residual = 8.460836691e-06, No Iterations 1
ExecutionTime = 2.51 s  ClockTime = 2 s

Time = 85

DILUPBiCGStab:  Solving for Ux, Initial residual = 0.002823541853, Final residual = 8.406896128e-06, No Iterations 2
DILUPBiCGStab:  Solving for Uy, Initial residual = 0.01707854515, Final residual = 3.799779562e-05, No Iterations 2
GAMG:  Solving for p, Initial residual = 0.0364525794, Final residual = 8.931502261e-05, No Iterations 3
time step continuity errors : sum local = 0.2649578694, global = -0.05225236989, cumulative = 0.2687510857
DILUPBiCGStab:  Solving for omega, Initial residual = 0.0001814777395, Final residual = 9.295283325e-07, No Iterations 1
DILUPBiCGStab:  Solving for k, Initial residual = 0.001545951063, Final residual = 8.372640162e-06, No Iterations 1
ExecutionTime = 2.53 s  ClockTime = 2 s

Time = 86

DILUPBiCGStab:  Solving for Ux, Initial residual = 0.00276366139, Final residual = 8.063664936e-06, No Iterations 2
DILUPBiCGStab:  Solving for Uy, Initial residual = 0.01690801045, Final residual = 3.718734188e-05, No Iterations 2
GAMG:  Solving for p, Initial residual = 0.03604622473, Final residual = 8.786067127e-05, No Iterations 3
time step continuity errors : sum local = 0.2607472623, global = -0.06135928779, cumulative = 0.207391798
DILUPBiCGStab:  Solving for omega, Initial residual = 0.0001772210189, Final residual = 9.058890477e-07, No Iterations 1
DILUPBiCGStab:  Solving for k, Initial residual = 0.001514392015, Final residual = 8.273499101e-06, No Iterations 1
ExecutionTime = 2.57 s  ClockTime = 2 s

Time = 87

DILUPBiCGStab:  Solving for Ux, Initial residual = 0.002703341138, Final residual = 7.78028735e-06, No Iterations 2
DILUPBiCGStab:  Solving for Uy, Initial residual = 0.01665433463, Final residual = 3.63632062e-05, No Iterations 2
GAMG:  Solving for p, Initial residual = 0.03559003562, Final residual = 8.665571323e-05, No Iterations 3
time step continuity errors : sum local = 0.257244938, global = -0.06942669905, cumulative = 0.1379650989
DILUPBiCGStab:  Solving for omega, Initial residual = 0.0001734932455, Final residual = 8.863484084e-07, No Iterations 1
DILUPBiCGStab:  Solving for k, Initial residual = 0.001486643242, Final residual = 8.119903165e-06, No Iterations 1
ExecutionTime = 2.59 s  ClockTime = 2 s

Time = 88

DILUPBiCGStab:  Solving for Ux, Initial residual = 0.002642195023, Final residual = 7.541792582e-06, No Iterations 2
DILUPBiCGStab:  Solving for Uy, Initial residual = 0.01649656951, Final residual = 3.550697947e-05, No Iterations 2
GAMG:  Solving for p, Initial residual = 0.03514944305, Final residual = 8.503036345e-05, No Iterations 3
time step continuity errors : sum local = 0.25245081, global = -0.07582227844, cumulative = 0.06214282046
DILUPBiCGStab:  Solving for omega, Initial residual = 0.0001697225863, Final residual = 8.669906764e-07, No Iterations 1
DILUPBiCGStab:  Solving for k, Initial residual = 0.001462742534, Final residual = 7.932382955e-06, No Iterations 1
ExecutionTime = 2.61 s  ClockTime = 2 s

Time = 89

DILUPBiCGStab:  Solving for Ux, Initial residual = 0.002586565011, Final residual = 7.314535601e-06, No Iterations 2
DILUPBiCGStab:  Solving for Uy, Initial residual = 0.01637133757, Final residual = 3.45329129e-05, No Iterations 2
GAMG:  Solving for p, Initial residual = 0.03475224348, Final residual = 8.22455122e-05, No Iterations 3
time step continuity errors : sum local = 0.2441653841, global = -0.07995275194, cumulative = -0.01780993148
DILUPBiCGStab:  Solving for omega, Initial residual = 0.0001657546018, Final residual = 8.458895428e-07, No Iterations 1
DILUPBiCGStab:  Solving for k, Initial residual = 0.001437636681, Final residual = 7.733760319e-06, No Iterations 1
ExecutionTime = 2.64 s  ClockTime = 2 s

Time = 90

DILUPBiCGStab:  Solving for Ux, Initial residual = 0.002533894262, Final residual = 7.098930932e-06, No Iterations 2
DILUPBiCGStab:  Solving for Uy, Initial residual = 0.01611543515, Final residual = 3.354217228e-05, No Iterations 2
GAMG:  Solving for p, Initial residual = 0.03432267915, Final residual = 7.804465908e-05, No Iterations 3
time step continuity errors : sum local = 0.2316976746, global = -0.08108482804, cumulative = -0.09889475952
DILUPBiCGStab:  Solving for omega, Initial residual = 0.0001614885106, Final residual = 8.23438757e-07, No Iterations 1
DILUPBiCGStab:  Solving for k, Initial residual = 0.001410517125, Final residual = 7.558863212e-06, No Iterations 1
ExecutionTime = 2.67 s  ClockTime = 2 s

Time = 91

DILUPBiCGStab:  Solving for Ux, Initial residual = 0.002480587399, Final residual = 6.903238668e-06, No Iterations 2
DILUPBiCGStab:  Solving for Uy, Initial residual = 0.01572921377, Final residual = 3.243960361e-05, No Iterations 2
GAMG:  Solving for p, Initial residual = 0.03392598382, Final residual = 7.342904678e-05, No Iterations 3
time step continuity errors : sum local = 0.218059268, global = -0.07748942669, cumulative = -0.1763841862
DILUPBiCGStab:  Solving for omega, Initial residual = 0.000157397125, Final residual = 8.02073788e-07, No Iterations 1
DILUPBiCGStab:  Solving for k, Initial residual = 0.00138180527, Final residual = 7.348921942e-06, No Iterations 1
ExecutionTime = 2.69 s  ClockTime = 3 s

Time = 92

DILUPBiCGStab:  Solving for Ux, Initial residual = 0.00242557501, Final residual = 6.796962571e-06, No Iterations 2
DILUPBiCGStab:  Solving for Uy, Initial residual = 0.01552359022, Final residual = 3.132500925e-05, No Iterations 2
GAMG:  Solving for p, Initial residual = 0.03352630873, Final residual = 7.192918656e-05, No Iterations 3
time step continuity errors : sum local = 0.2136630011, global = -0.06723951699, cumulative = -0.2436237032
DILUPBiCGStab:  Solving for omega, Initial residual = 0.0001532315412, Final residual = 7.766002568e-07, No Iterations 1
DILUPBiCGStab:  Solving for k, Initial residual = 0.001350250172, Final residual = 7.161920897e-06, No Iterations 1
ExecutionTime = 2.73 s  ClockTime = 3 s

Time = 93

DILUPBiCGStab:  Solving for Ux, Initial residual = 0.002370738863, Final residual = 6.667140521e-06, No Iterations 2
DILUPBiCGStab:  Solving for Uy, Initial residual = 0.01539574102, Final residual = 3.025780625e-05, No Iterations 2
GAMG:  Solving for p, Initial residual = 0.03317852889, Final residual = 7.813702204e-05, No Iterations 3
time step continuity errors : sum local = 0.2321366217, global = -0.04835478477, cumulative = -0.291978488
DILUPBiCGStab:  Solving for omega, Initial residual = 0.0001497419425, Final residual = 7.587762519e-07, No Iterations 1
DILUPBiCGStab:  Solving for k, Initial residual = 0.001322515489, Final residual = 6.933542835e-06, No Iterations 1
ExecutionTime = 2.75 s  ClockTime = 3 s

Time = 94

DILUPBiCGStab:  Solving for Ux, Initial residual = 0.002314845807, Final residual = 6.451032403e-06, No Iterations 2
DILUPBiCGStab:  Solving for Uy, Initial residual = 0.01524772379, Final residual = 2.923589674e-05, No Iterations 2
GAMG:  Solving for p, Initial residual = 0.0328184841, Final residual = 8.503210826e-05, No Iterations 3
time step continuity errors : sum local = 0.2525783431, global = -0.02330725528, cumulative = -0.3152857432
DILUPBiCGStab:  Solving for omega, Initial residual = 0.0001456705694, Final residual = 7.3553098e-07, No Iterations 1
DILUPBiCGStab:  Solving for k, Initial residual = 0.001291776213, Final residual = 6.683512367e-06, No Iterations 1
ExecutionTime = 2.77 s  ClockTime = 3 s

Time = 95

DILUPBiCGStab:  Solving for Ux, Initial residual = 0.002262597244, Final residual = 6.259687151e-06, No Iterations 2
DILUPBiCGStab:  Solving for Uy, Initial residual = 0.015090819, Final residual = 2.837212674e-05, No Iterations 2
GAMG:  Solving for p, Initial residual = 0.0324548006, Final residual = 8.510414473e-05, No Iterations 3
time step continuity errors : sum local = 0.2526875425, global = 0.003249683964, cumulative = -0.3120360593
DILUPBiCGStab:  Solving for omega, Initial residual = 0.0001419582896, Final residual = 7.147554038e-07, No Iterations 1
DILUPBiCGStab:  Solving for k, Initial residual = 0.001260791053, Final residual = 6.425652556e-06, No Iterations 1
ExecutionTime = 2.81 s  ClockTime = 3 s

Time = 96

DILUPBiCGStab:  Solving for Ux, Initial residual = 0.002212042146, Final residual = 6.121961739e-06, No Iterations 2
DILUPBiCGStab:  Solving for Uy, Initial residual = 0.01491977375, Final residual = 2.750082442e-05, No Iterations 2
GAMG:  Solving for p, Initial residual = 0.03209051377, Final residual = 8.098545291e-05, No Iterations 3
time step continuity errors : sum local = 0.2403751849, global = 0.02765703492, cumulative = -0.2843790244
DILUPBiCGStab:  Solving for omega, Initial residual = 0.0001381903979, Final residual = 6.954798126e-07, No Iterations 1
DILUPBiCGStab:  Solving for k, Initial residual = 0.001231070727, Final residual = 6.174994296e-06, No Iterations 1
ExecutionTime = 2.83 s  ClockTime = 3 s

Time = 97

DILUPBiCGStab:  Solving for Ux, Initial residual = 0.002163904384, Final residual = 5.98042937e-06, No Iterations 2
DILUPBiCGStab:  Solving for Uy, Initial residual = 0.01476736599, Final residual = 2.667677133e-05, No Iterations 2
GAMG:  Solving for p, Initial residual = 0.03175880825, Final residual = 7.355162788e-05, No Iterations 3
time step continuity errors : sum local = 0.2182915715, global = 0.04589178154, cumulative = -0.2384872428
DILUPBiCGStab:  Solving for omega, Initial residual = 0.0001344388498, Final residual = 6.751813594e-07, No Iterations 1
DILUPBiCGStab:  Solving for k, Initial residual = 0.00120226309, Final residual = 5.913807606e-06, No Iterations 1
ExecutionTime = 2.85 s  ClockTime = 3 s

Time = 98

DILUPBiCGStab:  Solving for Ux, Initial residual = 0.002115202603, Final residual = 5.826303117e-06, No Iterations 2
DILUPBiCGStab:  Solving for Uy, Initial residual = 0.01467277058, Final residual = 2.578886515e-05, No Iterations 2
GAMG:  Solving for p, Initial residual = 0.03147917881, Final residual = 6.714896345e-05, No Iterations 3
time step continuity errors : sum local = 0.199235599, global = 0.05085875026, cumulative = -0.1876284926
DILUPBiCGStab:  Solving for omega, Initial residual = 0.0001305731095, Final residual = 6.536799868e-07, No Iterations 1
DILUPBiCGStab:  Solving for k, Initial residual = 0.001171085009, Final residual = 5.622209454e-06, No Iterations 1
ExecutionTime = 2.89 s  ClockTime = 3 s

Time = 99

DILUPBiCGStab:  Solving for Ux, Initial residual = 0.002073187372, Final residual = 5.71519943e-06, No Iterations 2
DILUPBiCGStab:  Solving for Uy, Initial residual = 0.01455867164, Final residual = 2.49433239e-05, No Iterations 2
GAMG:  Solving for p, Initial residual = 0.03117180852, Final residual = 7.372762616e-05, No Iterations 3
time step continuity errors : sum local = 0.2186380484, global = 0.0378850396, cumulative = -0.149743453
DILUPBiCGStab:  Solving for omega, Initial residual = 0.0001262772146, Final residual = 6.28441595e-07, No Iterations 1
DILUPBiCGStab:  Solving for k, Initial residual = 0.001138042731, Final residual = 5.345218674e-06, No Iterations 1
ExecutionTime = 2.91 s  ClockTime = 3 s

Time = 100

DILUPBiCGStab:  Solving for Ux, Initial residual = 0.002032302542, Final residual = 5.572776066e-06, No Iterations 2
DILUPBiCGStab:  Solving for Uy, Initial residual = 0.01441092208, Final residual = 2.413377774e-05, No Iterations 2
GAMG:  Solving for p, Initial residual = 0.03087781024, Final residual = 8.486200963e-05, No Iterations 3
time step continuity errors : sum local = 0.2513749139, global = 0.01999397741, cumulative = -0.1297494756
DILUPBiCGStab:  Solving for omega, Initial residual = 0.0001222671302, Final residual = 6.061308373e-07, No Iterations 1
DILUPBiCGStab:  Solving for k, Initial residual = 0.001104197973, Final residual = 5.068118279e-06, No Iterations 1
ExecutionTime = 2.94 s  ClockTime = 3 s

Time = 101

DILUPBiCGStab:  Solving for Ux, Initial residual = 0.001988157404, Final residual = 5.471636441e-06, No Iterations 2
DILUPBiCGStab:  Solving for Uy, Initial residual = 0.01422933566, Final residual = 2.333735451e-05, No Iterations 2
GAMG:  Solving for p, Initial residual = 0.03058527292, Final residual = 8.754552296e-05, No Iterations 3
time step continuity errors : sum local = 0.2589067921, global = 0.01000706284, cumulative = -0.1197424127
DILUPBiCGStab:  Solving for omega, Initial residual = 0.0001173064933, Final residual = 5.695725372e-07, No Iterations 1
DILUPBiCGStab:  Solving for k, Initial residual = 0.001065348135, Final residual = 4.817392729e-06, No Iterations 1
ExecutionTime = 2.96 s  ClockTime = 3 s

Time = 102

DILUPBiCGStab:  Solving for Ux, Initial residual = 0.001937486758, Final residual = 5.375594759e-06, No Iterations 2
DILUPBiCGStab:  Solving for Uy, Initial residual = 0.01389207896, Final residual = 2.24075475e-05, No Iterations 2
GAMG:  Solving for p, Initial residual = 0.03034961771, Final residual = 8.777296551e-05, No Iterations 3
time step continuity errors : sum local = 0.2589756993, global = 0.007945665891, cumulative = -0.1117967468
DILUPBiCGStab:  Solving for omega, Initial residual = 0.0001134783879, Final residual = 5.464937022e-07, No Iterations 1
DILUPBiCGStab:  Solving for k, Initial residual = 0.001029765165, Final residual = 4.552030663e-06, No Iterations 1
ExecutionTime = 2.99 s  ClockTime = 3 s

Time = 103

DILUPBiCGStab:  Solving for Ux, Initial residual = 0.001880406108, Final residual = 5.262419646e-06, No Iterations 2
DILUPBiCGStab:  Solving for Uy, Initial residual = 0.01362685088, Final residual = 2.147063606e-05, No Iterations 2
GAMG:  Solving for p, Initial residual = 0.03019128906, Final residual = 9.028780246e-05, No Iterations 3
time step continuity errors : sum local = 0.2655494182, global = 0.01247612111, cumulative = -0.09932062573
DILUPBiCGStab:  Solving for omega, Initial residual = 0.0001091947106, Final residual = 5.212421208e-07, No Iterations 1
DILUPBiCGStab:  Solving for k, Initial residual = 0.0009929934547, Final residual = 4.272715112e-06, No Iterations 1
ExecutionTime = 3.01 s  ClockTime = 3 s

Time = 104

DILUPBiCGStab:  Solving for Ux, Initial residual = 0.001823485664, Final residual = 5.146606076e-06, No Iterations 2
DILUPBiCGStab:  Solving for Uy, Initial residual = 0.01348228134, Final residual = 2.05523178e-05, No Iterations 2
GAMG:  Solving for p, Initial residual = 0.02997576894, Final residual = 9.203662075e-05, No Iterations 3
time step continuity errors : sum local = 0.2698148483, global = 0.02436756327, cumulative = -0.07495306246
DILUPBiCGStab:  Solving for omega, Initial residual = 0.0001052173032, Final residual = 4.997327927e-07, No Iterations 1
DILUPBiCGStab:  Solving for k, Initial residual = 0.0009553777661, Final residual = 3.998385148e-06, No Iterations 1
ExecutionTime = 3.04 s  ClockTime = 3 s

Time = 105

DILUPBiCGStab:  Solving for Ux, Initial residual = 0.001766495709, Final residual = 5.056872023e-06, No Iterations 2
DILUPBiCGStab:  Solving for Uy, Initial residual = 0.01326823095, Final residual = 1.965131363e-05, No Iterations 2
GAMG:  Solving for p, Initial residual = 0.02974587934, Final residual = 8.192678144e-05, No Iterations 3
time step continuity errors : sum local = 0.2394393971, global = 0.04176918473, cumulative = -0.03318387773
DILUPBiCGStab:  Solving for omega, Initial residual = 0.0001012206076, Final residual = 4.811132048e-07, No Iterations 1
DILUPBiCGStab:  Solving for k, Initial residual = 0.000919132044, Final residual = 3.747078894e-06, No Iterations 1
ExecutionTime = 3.07 s  ClockTime = 3 s

Time = 106

DILUPBiCGStab:  Solving for Ux, Initial residual = 0.001716567578, Final residual = 4.946143453e-06, No Iterations 2
DILUPBiCGStab:  Solving for Uy, Initial residual = 0.01307371541, Final residual = 1.869463869e-05, No Iterations 2
GAMG:  Solving for p, Initial residual = 0.02948974517, Final residual = 5.331915915e-05, No Iterations 3
time step continuity errors : sum local = 0.1555120443, global = 0.02921001907, cumulative = -0.003973858662
DILUPBiCGStab:  Solving for omega, Initial residual = 9.72616528e-05, Final residual = 4.639773002e-07, No Iterations 1
DILUPBiCGStab:  Solving for k, Initial residual = 0.0008837625893, Final residual = 3.528820541e-06, No Iterations 1
ExecutionTime = 3.1 s  ClockTime = 3 s

Time = 107

DILUPBiCGStab:  Solving for Ux, Initial residual = 0.001671790112, Final residual = 4.832274358e-06, No Iterations 2
DILUPBiCGStab:  Solving for Uy, Initial residual = 0.01287169398, Final residual = 1.774153367e-05, No Iterations 2
GAMG:  Solving for p, Initial residual = 0.02921436177, Final residual = 5.39128225e-05, No Iterations 3
time step continuity errors : sum local = 0.1570937619, global = 0.0066141503, cumulative = 0.002640291637
DILUPBiCGStab:  Solving for omega, Initial residual = 9.345629593e-05, Final residual = 4.442441974e-07, No Iterations 1
DILUPBiCGStab:  Solving for k, Initial residual = 0.0008482255322, Final residual = 3.335319462e-06, No Iterations 1
ExecutionTime = 3.12 s  ClockTime = 3 s

Time = 108

DILUPBiCGStab:  Solving for Ux, Initial residual = 0.001631400062, Final residual = 4.738874675e-06, No Iterations 2
[...]
GAMG:  Solving for p, Initial residual = 1.418007504e-05, Final residual = 2.425887997e-08, No Iterations 2
time step continuity errors : sum local = 6.293680937e-05, global = -2.556332973e-05, cumulative = 0.2551156976
DILUPBiCGStab:  Solving for omega, Initial residual = 2.13902985e-09, Final residual = 6.117150554e-11, No Iterations 1
DILUPBiCGStab:  Solving for k, Initial residual = 1.941092793e-08, Final residual = 2.387818558e-11, No Iterations 1
ExecutionTime = 18.84 s  ClockTime = 19 s

Time = 726

DILUPBiCGStab:  Solving for Ux, Initial residual = 5.428461601e-07, Final residual = 1.551809767e-09, No Iterations 1
DILUPBiCGStab:  Solving for Uy, Initial residual = 5.216408952e-06, Final residual = 1.317089128e-08, No Iterations 1
GAMG:  Solving for p, Initial residual = 1.398348891e-05, Final residual = 2.334606679e-08, No Iterations 2
time step continuity errors : sum local = 6.056861543e-05, global = -2.55768952e-05, cumulative = 0.2550901208
DILUPBiCGStab:  Solving for omega, Initial residual = 2.095856823e-09, Final residual = 5.9025469e-11, No Iterations 1
DILUPBiCGStab:  Solving for k, Initial residual = 1.909428391e-08, Final residual = 2.238520344e-11, No Iterations 1
ExecutionTime = 18.86 s  ClockTime = 19 s

Time = 727

DILUPBiCGStab:  Solving for Ux, Initial residual = 5.372182218e-07, Final residual = 1.593898997e-09, No Iterations 1
DILUPBiCGStab:  Solving for Uy, Initial residual = 5.147738063e-06, Final residual = 1.299754483e-08, No Iterations 1
GAMG:  Solving for p, Initial residual = 1.379267519e-05, Final residual = 2.209381771e-08, No Iterations 2
time step continuity errors : sum local = 5.731979519e-05, global = -2.369411326e-05, cumulative = 0.2550664266
DILUPBiCGStab:  Solving for omega, Initial residual = 2.049775685e-09, Final residual = 5.66830691e-11, No Iterations 1
DILUPBiCGStab:  Solving for k, Initial residual = 1.877161469e-08, Final residual = 2.040579129e-11, No Iterations 1
ExecutionTime = 18.89 s  ClockTime = 19 s

Time = 728

DILUPBiCGStab:  Solving for Ux, Initial residual = 5.312309639e-07, Final residual = 1.629790027e-09, No Iterations 1
DILUPBiCGStab:  Solving for Uy, Initial residual = 5.083808759e-06, Final residual = 1.287222229e-08, No Iterations 1
GAMG:  Solving for p, Initial residual = 1.361237897e-05, Final residual = 2.211440799e-08, No Iterations 2
time step continuity errors : sum local = 5.737320773e-05, global = -2.059843169e-05, cumulative = 0.2550458282
DILUPBiCGStab:  Solving for omega, Initial residual = 2.007883665e-09, Final residual = 5.459170866e-11, No Iterations 1
DILUPBiCGStab:  Solving for k, Initial residual = 1.844761909e-08, Final residual = 1.831031684e-11, No Iterations 1
ExecutionTime = 18.92 s  ClockTime = 19 s

Time = 729

DILUPBiCGStab:  Solving for Ux, Initial residual = 5.250628063e-07, Final residual = 1.654171986e-09, No Iterations 1
DILUPBiCGStab:  Solving for Uy, Initial residual = 5.020075174e-06, Final residual = 1.278046719e-08, No Iterations 1
GAMG:  Solving for p, Initial residual = 1.342959935e-05, Final residual = 2.297625447e-08, No Iterations 2
time step continuity errors : sum local = 5.960916229e-05, global = -1.753157615e-05, cumulative = 0.2550282966
DILUPBiCGStab:  Solving for omega, Initial residual = 1.972267622e-09, Final residual = 5.301586629e-11, No Iterations 1
DILUPBiCGStab:  Solving for k, Initial residual = 1.813095136e-08, Final residual = 1.70288019e-11, No Iterations 1
ExecutionTime = 18.94 s  ClockTime = 19 s

Time = 730

DILUPBiCGStab:  Solving for Ux, Initial residual = 5.190799898e-07, Final residual = 1.689288367e-09, No Iterations 1
DILUPBiCGStab:  Solving for Uy, Initial residual = 4.956799738e-06, Final residual = 1.267280308e-08, No Iterations 1
GAMG:  Solving for p, Initial residual = 1.3244255e-05, Final residual = 2.33315637e-08, No Iterations 2
time step continuity errors : sum local = 6.053096971e-05, global = -1.525886005e-05, cumulative = 0.2550130378
DILUPBiCGStab:  Solving for omega, Initial residual = 1.938848097e-09, Final residual = 5.181314118e-11, No Iterations 1
DILUPBiCGStab:  Solving for k, Initial residual = 1.7827703e-08, Final residual = 1.707936603e-11, No Iterations 1
ExecutionTime = 18.97 s  ClockTime = 19 s

Time = 731

DILUPBiCGStab:  Solving for Ux, Initial residual = 5.130739331e-07, Final residual = 1.707590666e-09, No Iterations 1
DILUPBiCGStab:  Solving for Uy, Initial residual = 4.890287499e-06, Final residual = 1.253012627e-08, No Iterations 1
GAMG:  Solving for p, Initial residual = 1.307032663e-05, Final residual = 2.298858047e-08, No Iterations 2
time step continuity errors : sum local = 5.96411404e-05, global = -1.397610552e-05, cumulative = 0.2549990617
DILUPBiCGStab:  Solving for omega, Initial residual = 1.897938104e-09, Final residual = 4.968607599e-11, No Iterations 1
DILUPBiCGStab:  Solving for k, Initial residual = 1.751096108e-08, Final residual = 1.7105498e-11, No Iterations 1
ExecutionTime = 18.99 s  ClockTime = 19 s

Time = 732

DILUPBiCGStab:  Solving for Ux, Initial residual = 5.058467277e-07, Final residual = 1.678839803e-09, No Iterations 1
DILUPBiCGStab:  Solving for Uy, Initial residual = 4.82402247e-06, Final residual = 1.235221891e-08, No Iterations 1
GAMG:  Solving for p, Initial residual = 1.289915812e-05, Final residual = 2.218373263e-08, No Iterations 2
time step continuity errors : sum local = 5.755305962e-05, global = -1.36467861e-05, cumulative = 0.2549854149
DILUPBiCGStab:  Solving for omega, Initial residual = 1.847812991e-09, Final residual = 4.668803202e-11, No Iterations 1
DILUPBiCGStab:  Solving for k, Initial residual = 1.715248789e-08, Final residual = 1.643334148e-11, No Iterations 1
ExecutionTime = 19.02 s  ClockTime = 19 s

Time = 733

DILUPBiCGStab:  Solving for Ux, Initial residual = 4.983296474e-07, Final residual = 1.608976786e-09, No Iterations 1
DILUPBiCGStab:  Solving for Uy, Initial residual = 4.757079674e-06, Final residual = 1.215214185e-08, No Iterations 1
GAMG:  Solving for p, Initial residual = 1.272690709e-05, Final residual = 2.131033361e-08, No Iterations 2
time step continuity errors : sum local = 5.528713075e-05, global = -1.404996088e-05, cumulative = 0.2549713649
DILUPBiCGStab:  Solving for omega, Initial residual = 1.799945343e-09, Final residual = 4.469838727e-11, No Iterations 1
DILUPBiCGStab:  Solving for k, Initial residual = 1.674113462e-08, Final residual = 1.534242663e-11, No Iterations 1
ExecutionTime = 19.04 s  ClockTime = 19 s

Time = 734

DILUPBiCGStab:  Solving for Ux, Initial residual = 4.901017041e-07, Final residual = 1.514171676e-09, No Iterations 1
DILUPBiCGStab:  Solving for Uy, Initial residual = 4.690953287e-06, Final residual = 1.195378971e-08, No Iterations 1
GAMG:  Solving for p, Initial residual = 1.256393359e-05, Final residual = 2.007495675e-08, No Iterations 2
time step continuity errors : sum local = 5.20820916e-05, global = -1.475921504e-05, cumulative = 0.2549566057
DILUPBiCGStab:  Solving for omega, Initial residual = 1.761286391e-09, Final residual = 4.337039654e-11, No Iterations 1
DILUPBiCGStab:  Solving for k, Initial residual = 1.635917961e-08, Final residual = 1.474183359e-11, No Iterations 1
ExecutionTime = 19.07 s  ClockTime = 19 s

Time = 735

DILUPBiCGStab:  Solving for Ux, Initial residual = 4.822799786e-07, Final residual = 1.418899873e-09, No Iterations 1
DILUPBiCGStab:  Solving for Uy, Initial residual = 4.62475769e-06, Final residual = 1.175357132e-08, No Iterations 1
GAMG:  Solving for p, Initial residual = 1.240258915e-05, Final residual = 1.86310794e-08, No Iterations 2
time step continuity errors : sum local = 4.833612086e-05, global = -1.533907668e-05, cumulative = 0.2549412666
DILUPBiCGStab:  Solving for omega, Initial residual = 1.728844337e-09, Final residual = 4.258249574e-11, No Iterations 1
DILUPBiCGStab:  Solving for k, Initial residual = 1.601381642e-08, Final residual = 1.465577476e-11, No Iterations 1
ExecutionTime = 19.09 s  ClockTime = 19 s

Time = 736

DILUPBiCGStab:  Solving for Ux, Initial residual = 4.748141046e-07, Final residual = 1.344296476e-09, No Iterations 1
DILUPBiCGStab:  Solving for Uy, Initial residual = 4.560161372e-06, Final residual = 1.154121862e-08, No Iterations 1
GAMG:  Solving for p, Initial residual = 1.22351078e-05, Final residual = 1.730933193e-08, No Iterations 2
time step continuity errors : sum local = 4.490699902e-05, global = -1.549363162e-05, cumulative = 0.254925773
DILUPBiCGStab:  Solving for omega, Initial residual = 1.69256097e-09, Final residual = 4.154450561e-11, No Iterations 1
DILUPBiCGStab:  Solving for k, Initial residual = 1.568009281e-08, Final residual = 1.446894567e-11, No Iterations 1
ExecutionTime = 19.12 s  ClockTime = 19 s

Time = 737

DILUPBiCGStab:  Solving for Ux, Initial residual = 4.675584203e-07, Final residual = 1.271768261e-09, No Iterations 1
DILUPBiCGStab:  Solving for Uy, Initial residual = 4.49535124e-06, Final residual = 1.133807231e-08, No Iterations 1
GAMG:  Solving for p, Initial residual = 1.206506456e-05, Final residual = 1.664666195e-08, No Iterations 2
time step continuity errors : sum local = 4.318777476e-05, global = -1.451897096e-05, cumulative = 0.254911254
DILUPBiCGStab:  Solving for omega, Initial residual = 1.651509295e-09, Final residual = 3.980545025e-11, No Iterations 1
DILUPBiCGStab:  Solving for k, Initial residual = 1.537221141e-08, Final residual = 1.388516498e-11, No Iterations 1
ExecutionTime = 19.14 s  ClockTime = 19 s

Time = 738

DILUPBiCGStab:  Solving for Ux, Initial residual = 4.606864862e-07, Final residual = 1.210968361e-09, No Iterations 1
DILUPBiCGStab:  Solving for Uy, Initial residual = 4.434847832e-06, Final residual = 1.115466069e-08, No Iterations 1
GAMG:  Solving for p, Initial residual = 1.189253125e-05, Final residual = 1.702772995e-08, No Iterations 2
time step continuity errors : sum local = 4.417639908e-05, global = -1.23196087e-05, cumulative = 0.2548989344
DILUPBiCGStab:  Solving for omega, Initial residual = 1.608595562e-09, Final residual = 3.776204289e-11, No Iterations 1
DILUPBiCGStab:  Solving for k, Initial residual = 1.509908129e-08, Final residual = 1.301637456e-11, No Iterations 1
ExecutionTime = 19.16 s  ClockTime = 19 s

Time = 739

DILUPBiCGStab:  Solving for Ux, Initial residual = 4.538154055e-07, Final residual = 1.167441001e-09, No Iterations 1
DILUPBiCGStab:  Solving for Uy, Initial residual = 4.377874102e-06, Final residual = 1.101003849e-08, No Iterations 1
GAMG:  Solving for p, Initial residual = 1.172958027e-05, Final residual = 1.763526337e-08, No Iterations 2
time step continuity errors : sum local = 4.575255676e-05, global = -1.07299982e-05, cumulative = 0.2548882044
DILUPBiCGStab:  Solving for omega, Initial residual = 1.56957725e-09, Final residual = 3.592676328e-11, No Iterations 1
DILUPBiCGStab:  Solving for k, Initial residual = 1.483828235e-08, Final residual = 1.215345607e-11, No Iterations 1
ExecutionTime = 19.18 s  ClockTime = 19 s

Time = 740

DILUPBiCGStab:  Solving for Ux, Initial residual = 4.470015529e-07, Final residual = 1.144360065e-09, No Iterations 1
DILUPBiCGStab:  Solving for Uy, Initial residual = 4.324329037e-06, Final residual = 1.086948714e-08, No Iterations 1
GAMG:  Solving for p, Initial residual = 1.157918817e-05, Final residual = 1.799909076e-08, No Iterations 2
time step continuity errors : sum local = 4.669644861e-05, global = -1.071664808e-05, cumulative = 0.2548774878
DILUPBiCGStab:  Solving for omega, Initial residual = 1.536429215e-09, Final residual = 3.454367453e-11, No Iterations 1
DILUPBiCGStab:  Solving for k, Initial residual = 1.458386839e-08, Final residual = 1.160116745e-11, No Iterations 1
ExecutionTime = 19.21 s  ClockTime = 19 s

Time = 741

DILUPBiCGStab:  Solving for Ux, Initial residual = 4.403643252e-07, Final residual = 1.126705186e-09, No Iterations 1
DILUPBiCGStab:  Solving for Uy, Initial residual = 4.272859778e-06, Final residual = 1.073058794e-08, No Iterations 1
GAMG:  Solving for p, Initial residual = 1.143466398e-05, Final residual = 1.829725823e-08, No Iterations 2
time step continuity errors : sum local = 4.746999383e-05, global = -1.215415915e-05, cumulative = 0.2548653336
DILUPBiCGStab:  Solving for omega, Initial residual = 1.506200084e-09, Final residual = 3.342557335e-11, No Iterations 1
DILUPBiCGStab:  Solving for k, Initial residual = 1.43250671e-08, Final residual = 1.114857813e-11, No Iterations 1
ExecutionTime = 19.23 s  ClockTime = 19 s

Time = 742

DILUPBiCGStab:  Solving for Ux, Initial residual = 4.339292321e-07, Final residual = 1.105882092e-09, No Iterations 1
DILUPBiCGStab:  Solving for Uy, Initial residual = 4.220786104e-06, Final residual = 1.059393225e-08, No Iterations 1
GAMG:  Solving for p, Initial residual = 1.12832269e-05, Final residual = 1.863892293e-08, No Iterations 2
time step continuity errors : sum local = 4.835638464e-05, global = -1.453974998e-05, cumulative = 0.2548507939
DILUPBiCGStab:  Solving for omega, Initial residual = 1.479233357e-09, Final residual = 3.258503977e-11, No Iterations 1
DILUPBiCGStab:  Solving for k, Initial residual = 1.409110419e-08, Final residual = 1.063763691e-11, No Iterations 1
ExecutionTime = 19.26 s  ClockTime = 19 s

Time = 743

DILUPBiCGStab:  Solving for Ux, Initial residual = 4.278769041e-07, Final residual = 1.081500739e-09, No Iterations 1
DILUPBiCGStab:  Solving for Uy, Initial residual = 4.166335275e-06, Final residual = 1.045225608e-08, No Iterations 1
GAMG:  Solving for p, Initial residual = 1.113306078e-05, Final residual = 1.915051614e-08, No Iterations 2
time step continuity errors : sum local = 4.968363624e-05, global = -1.722984127e-05, cumulative = 0.254833564
DILUPBiCGStab:  Solving for omega, Initial residual = 1.455545868e-09, Final residual = 3.194106513e-11, No Iterations 1
DILUPBiCGStab:  Solving for k, Initial residual = 1.385946868e-08, Final residual = 1.019532749e-11, No Iterations 1
ExecutionTime = 19.28 s  ClockTime = 19 s

Time = 744

DILUPBiCGStab:  Solving for Ux, Initial residual = 4.224479105e-07, Final residual = 1.057549712e-09, No Iterations 1
DILUPBiCGStab:  Solving for Uy, Initial residual = 4.112385317e-06, Final residual = 1.030482877e-08, No Iterations 1
GAMG:  Solving for p, Initial residual = 1.098599839e-05, Final residual = 1.976874674e-08, No Iterations 2
time step continuity errors : sum local = 5.128754399e-05, global = -1.959519444e-05, cumulative = 0.2548139688
DILUPBiCGStab:  Solving for omega, Initial residual = 1.43324845e-09, Final residual = 3.143355807e-11, No Iterations 1
DILUPBiCGStab:  Solving for k, Initial residual = 1.363871957e-08, Final residual = 9.887483987e-12, No Iterations 1
ExecutionTime = 19.31 s  ClockTime = 19 s

Time = 745

DILUPBiCGStab:  Solving for Ux, Initial residual = 4.173153173e-07, Final residual = 1.038334145e-09, No Iterations 1
DILUPBiCGStab:  Solving for Uy, Initial residual = 4.060625196e-06, Final residual = 1.01454362e-08, No Iterations 1
GAMG:  Solving for p, Initial residual = 1.084459875e-05, Final residual = 2.035726824e-08, No Iterations 2
time step continuity errors : sum local = 5.281437651e-05, global = -2.117016108e-05, cumulative = 0.2547927987
DILUPBiCGStab:  Solving for omega, Initial residual = 1.411238187e-09, Final residual = 3.106911382e-11, No Iterations 1
DILUPBiCGStab:  Solving for k, Initial residual = 1.343604031e-08, Final residual = 9.719110206e-12, No Iterations 1
ExecutionTime = 19.34 s  ClockTime = 19 s

Time = 746

DILUPBiCGStab:  Solving for Ux, Initial residual = 4.121257964e-07, Final residual = 1.023205958e-09, No Iterations 1
DILUPBiCGStab:  Solving for Uy, Initial residual = 4.009097312e-06, Final residual = 9.984162083e-09, No Iterations 1
GAMG:  Solving for p, Initial residual = 1.069779093e-05, Final residual = 2.085806433e-08, No Iterations 2
time step continuity errors : sum local = 5.411361455e-05, global = -2.172559781e-05, cumulative = 0.2547710731
DILUPBiCGStab:  Solving for omega, Initial residual = 1.389232676e-09, Final residual = 3.076198379e-11, No Iterations 1
DILUPBiCGStab:  Solving for k, Initial residual = 1.324002718e-08, Final residual = 9.627427368e-12, No Iterations 1
ExecutionTime = 19.36 s  ClockTime = 19 s

Time = 747

DILUPBiCGStab:  Solving for Ux, Initial residual = 4.068009238e-07, Final residual = 1.009566354e-09, No Iterations 1
DILUPBiCGStab:  Solving for Uy, Initial residual = 3.956617149e-06, Final residual = 9.840919426e-09, No Iterations 1
GAMG:  Solving for p, Initial residual = 1.054988669e-05, Final residual = 2.128575939e-08, No Iterations 2
time step continuity errors : sum local = 5.522320077e-05, global = -2.12607086e-05, cumulative = 0.2547498124
DILUPBiCGStab:  Solving for omega, Initial residual = 1.369192894e-09, Final residual = 3.042353132e-11, No Iterations 1
DILUPBiCGStab:  Solving for k, Initial residual = 1.306782193e-08, Final residual = 9.493888281e-12, No Iterations 1
ExecutionTime = 19.39 s  ClockTime = 19 s

Time = 748

DILUPBiCGStab:  Solving for Ux, Initial residual = 4.016886552e-07, Final residual = 9.954701354e-10, No Iterations 1
DILUPBiCGStab:  Solving for Uy, Initial residual = 3.907088117e-06, Final residual = 9.706377177e-09, No Iterations 1
GAMG:  Solving for p, Initial residual = 1.040160823e-05, Final residual = 2.169521067e-08, No Iterations 2
time step continuity errors : sum local = 5.628545615e-05, global = -1.993732804e-05, cumulative = 0.254729875
DILUPBiCGStab:  Solving for omega, Initial residual = 1.349655524e-09, Final residual = 3.007183597e-11, No Iterations 1
DILUPBiCGStab:  Solving for k, Initial residual = 1.289862053e-08, Final residual = 9.322827014e-12, No Iterations 1
ExecutionTime = 19.41 s  ClockTime = 19 s

Time = 749

DILUPBiCGStab:  Solving for Ux, Initial residual = 3.965512216e-07, Final residual = 9.786373342e-10, No Iterations 1
DILUPBiCGStab:  Solving for Uy, Initial residual = 3.854471732e-06, Final residual = 9.577773544e-09, No Iterations 1
GAMG:  Solving for p, Initial residual = 1.025280564e-05, Final residual = 2.208125874e-08, No Iterations 2
time step continuity errors : sum local = 5.728699174e-05, global = -1.797742406e-05, cumulative = 0.2547118976
DILUPBiCGStab:  Solving for omega, Initial residual = 1.331044993e-09, Final residual = 2.98171726e-11, No Iterations 1
DILUPBiCGStab:  Solving for k, Initial residual = 1.274003193e-08, Final residual = 9.164110786e-12, No Iterations 1
ExecutionTime = 19.43 s  ClockTime = 19 s

Time = 750

DILUPBiCGStab:  Solving for Ux, Initial residual = 3.911147372e-07, Final residual = 9.574460304e-10, No Iterations 1
DILUPBiCGStab:  Solving for Uy, Initial residual = 3.80392768e-06, Final residual = 9.45523561e-09, No Iterations 1
GAMG:  Solving for p, Initial residual = 1.011744543e-05, Final residual = 2.243438314e-08, No Iterations 2
time step continuity errors : sum local = 5.820311129e-05, global = -1.556771897e-05, cumulative = 0.2546963299
DILUPBiCGStab:  Solving for omega, Initial residual = 1.316923975e-09, Final residual = 2.984065464e-11, No Iterations 1
DILUPBiCGStab:  Solving for k, Initial residual = 1.260950113e-08, Final residual = 9.163792097e-12, No Iterations 1
ExecutionTime = 19.46 s  ClockTime = 19 s

Time = 751

DILUPBiCGStab:  Solving for Ux, Initial residual = 3.853511599e-07, Final residual = 9.325151171e-10, No Iterations 1
DILUPBiCGStab:  Solving for Uy, Initial residual = 3.751657239e-06, Final residual = 9.330442282e-09, No Iterations 1
GAMG:  Solving for p, Initial residual = 9.982523505e-06, Final residual = 2.27910707e-08, No Iterations 2
time step continuity errors : sum local = 5.912847501e-05, global = -1.282885096e-05, cumulative = 0.254683501
DILUPBiCGStab:  Solving for omega, Initial residual = 1.306819816e-09, Final residual = 3.02054325e-11, No Iterations 1
DILUPBiCGStab:  Solving for k, Initial residual = 1.248453833e-08, Final residual = 9.323211891e-12, No Iterations 1
ExecutionTime = 19.48 s  ClockTime = 19 s


SIMPLE solution converged in 751 iterations

End

