/*---------------------------------------------------------------------------*\
  =========                 |
  \\      /  F ield         | OpenFOAM: The Open Source CFD Toolbox
   \\    /   O peration     | Website:  https://openfoam.org
    \\  /    A nd           | Version:  8
     \\/     M anipulation  |
\*---------------------------------------------------------------------------*/
Build  : 8-1c9b5879390b
Exec   : simpleHFDIBRANSFoam
Date   : May 20 2026
Time   : 07:51:23
Host   : "078593a7dc9a"
PID    : 178
I/O    : uncollated
Case   : /home/openfoam/bachelors/tests/recomputeOfShamePipe/msi/medium/openHFDIBRANS_kO
nProcs : 1
sigFpe : Enabling floating point exception trapping (FOAM_SIGFPE).
fileModificationChecking : Monitoring run-time modified files using timeStampMaster (fileModificationSkew 10)
allowSystemOperations : Allowing user-supplied system call operations

// * * * * * * * * * * * * * * * * * * * * * * * * * * * * * * * * * * * * * //
Create time

Create mesh for time = 0


SIMPLE: Convergence criteria found
        p: tolerance 1e-05

Reading field p

Reading field U

Creating field Ui

Reading field lambda

Creating field surface

Creating field normSurface

Reading field f

Reading/calculating face flux field phi


Reading g
Selecting incompressible transport model Newtonian
Selecting turbulence model type HFDIBRAS
Selecting HFDIBRAS turbulence model HFDIBKOmega
HFDIBRAS
{
    HFDIBRASModel   HFDIBKOmega;
    turbulence      on;
    printCoeffs     on;
    disGSurfaceType setValue;
    disGBoundaryValue 1;
    kSurfaceType    setValue;
    kBoundaryValue  0;
    tolKEqn         1e-08;
    betaStar        0.09;
    beta            0.072;
    gamma           0.52;
    alphaK          0.5;
    alphaOmega      0.5;
}

No MRF models present

No finite volume options present

Starting time loop

Time = 1

DILUPBiCGStab:  Solving for Ux, Initial residual = 1, Final residual = 6.473119884e-32, No Iterations 22
DILUPBiCGStab:  Solving for Uy, Initial residual = 0, Final residual = 0, No Iterations 0
HFDIBRANS: Max error in U -> Ui is 566.6650123
GAMG:  Solving for p, Initial residual = 1, Final residual = 6.076649036e-11, No Iterations 39
time step continuity errors : sum local = 8.53173663e-08, global = -4.911237375e-09, cumulative = -4.911237375e-09
DILUPBiCGStab:  Solving for omega, Initial residual = 0.01286619642, Final residual = 2.518242618e-31, No Iterations 18
DILUPBiCGStab:  Solving for k, Initial residual = 1, Final residual = 3.654464078e-33, No Iterations 20
HFDIBRANS: Max error in k -> ki is 30.87094215
bounding k, min: -30.44380532 max: 485.8024891 average: 16.30092576
ExecutionTime = 0.91 s  ClockTime = 1 s

Time = 2

DILUPBiCGStab:  Solving for Ux, Initial residual = 0.5197983233, Final residual = 7.167826987e-31, No Iterations 20
DILUPBiCGStab:  Solving for Uy, Initial residual = 0.6598334719, Final residual = 2.344793596e-31, No Iterations 21
HFDIBRANS: Max error in U -> Ui is 387.2113913
GAMG:  Solving for p, Initial residual = 0.02670529107, Final residual = 7.668566291e-11, No Iterations 33
time step continuity errors : sum local = 4.590011627e-06, global = 1.519493172e-07, cumulative = 1.470380798e-07
DILUPBiCGStab:  Solving for omega, Initial residual = 0.003129512451, Final residual = 7.467008752e-31, No Iterations 19
DILUPBiCGStab:  Solving for k, Initial residual = 0.1489982506, Final residual = 5.540864161e-31, No Iterations 20
HFDIBRANS: Max error in k -> ki is 47.33674019
bounding k, min: -47.33674019 max: 639.1284641 average: 23.56351424
ExecutionTime = 1.23 s  ClockTime = 1 s

Time = 3

DILUPBiCGStab:  Solving for Ux, Initial residual = 0.3877527923, Final residual = 3.935825992e-31, No Iterations 25
DILUPBiCGStab:  Solving for Uy, Initial residual = 0.432563487, Final residual = 3.258658424e-32, No Iterations 26
HFDIBRANS: Max error in U -> Ui is 278.2069056
GAMG:  Solving for p, Initial residual = 0.0466583571, Final residual = 8.596629454e-11, No Iterations 36
time step continuity errors : sum local = 1.529211457e-06, global = -4.006445324e-08, cumulative = 1.069736266e-07
DILUPBiCGStab:  Solving for omega, Initial residual = 0.001062228215, Final residual = 8.91249051e-31, No Iterations 18
DILUPBiCGStab:  Solving for k, Initial residual = 0.0805758529, Final residual = 1.166201129e-31, No Iterations 19
HFDIBRANS: Max error in k -> ki is 22.02478382
bounding k, min: -6.480902915 max: 714.8443879 average: 24.28998737
ExecutionTime = 1.55 s  ClockTime = 2 s

Time = 4

DILUPBiCGStab:  Solving for Ux, Initial residual = 0.2043534306, Final residual = 8.590627831e-31, No Iterations 25
DILUPBiCGStab:  Solving for Uy, Initial residual = 0.3608576641, Final residual = 9.674066901e-31, No Iterations 25
HFDIBRANS: Max error in U -> Ui is 222.0096291
GAMG:  Solving for p, Initial residual = 0.1272125521, Final residual = 5.877904729e-11, No Iterations 42
time step continuity errors : sum local = 4.420982522e-07, global = 1.881515718e-08, cumulative = 1.257887837e-07
DILUPBiCGStab:  Solving for omega, Initial residual = 0.0009302575174, Final residual = 4.899389368e-31, No Iterations 18
DILUPBiCGStab:  Solving for k, Initial residual = 0.06566037295, Final residual = 1.297765562e-31, No Iterations 19
HFDIBRANS: Max error in k -> ki is 63.7109015
bounding k, min: -32.32235335 max: 692.0704399 average: 23.35469568
ExecutionTime = 1.89 s  ClockTime = 2 s

Time = 5

DILUPBiCGStab:  Solving for Ux, Initial residual = 0.1247067084, Final residual = 2.438849718e-31, No Iterations 22
DILUPBiCGStab:  Solving for Uy, Initial residual = 0.5030420859, Final residual = 6.751939926e-31, No Iterations 22
HFDIBRANS: Max error in U -> Ui is 195.1365941
GAMG:  Solving for p, Initial residual = 0.04990935793, Final residual = 6.670012758e-11, No Iterations 50
time step continuity errors : sum local = 1.310015664e-06, global = 3.795742141e-08, cumulative = 1.637462051e-07
DILUPBiCGStab:  Solving for omega, Initial residual = 0.0007361302111, Final residual = 4.070232142e-31, No Iterations 17
DILUPBiCGStab:  Solving for k, Initial residual = 0.05209326999, Final residual = 1.449130934e-31, No Iterations 19
HFDIBRANS: Max error in k -> ki is 53.69749647
bounding k, min: -2.101993142 max: 731.174001 average: 23.17217795
ExecutionTime = 2.25 s  ClockTime = 2 s

Time = 6

DILUPBiCGStab:  Solving for Ux, Initial residual = 0.1278930511, Final residual = 2.662004428e-31, No Iterations 23
DILUPBiCGStab:  Solving for Uy, Initial residual = 0.4407609524, Final residual = 2.270977417e-31, No Iterations 24
HFDIBRANS: Max error in U -> Ui is 147.3640199
GAMG:  Solving for p, Initial residual = 0.04451007378, Final residual = 9.737033006e-11, No Iterations 54
time step continuity errors : sum local = 2.173868196e-06, global = 3.544379681e-08, cumulative = 1.991900019e-07
DILUPBiCGStab:  Solving for omega, Initial residual = 0.0006392987792, Final residual = 3.461867875e-31, No Iterations 17
DILUPBiCGStab:  Solving for k, Initial residual = 0.04840526902, Final residual = 4.911177741e-32, No Iterations 19
HFDIBRANS: Max error in k -> ki is 64.98622514
bounding k, min: -64.98622514 max: 615.631189 average: 22.61368662
ExecutionTime = 2.64 s  ClockTime = 3 s

Time = 7

DILUPBiCGStab:  Solving for Ux, Initial residual = 0.1101842681, Final residual = 5.492995965e-31, No Iterations 21
DILUPBiCGStab:  Solving for Uy, Initial residual = 0.4616318435, Final residual = 6.489972037e-31, No Iterations 21
HFDIBRANS: Max error in U -> Ui is 131.3024416
GAMG:  Solving for p, Initial residual = 0.03955764269, Final residual = 8.458599239e-11, No Iterations 42
time step continuity errors : sum local = 2.28371551e-06, global = 5.931850938e-08, cumulative = 2.585085113e-07
DILUPBiCGStab:  Solving for omega, Initial residual = 0.000731329026, Final residual = 2.904473957e-31, No Iterations 18
DILUPBiCGStab:  Solving for k, Initial residual = 0.04374220165, Final residual = 5.766275867e-32, No Iterations 19
HFDIBRANS: Max error in k -> ki is 37.45653114
bounding k, min: -1.776867531 max: 706.4160872 average: 22.70828147
ExecutionTime = 2.97 s  ClockTime = 3 s

Time = 8

DILUPBiCGStab:  Solving for Ux, Initial residual = 0.1232075054, Final residual = 9.283147834e-31, No Iterations 21
DILUPBiCGStab:  Solving for Uy, Initial residual = 0.4498760705, Final residual = 4.379208794e-31, No Iterations 22
HFDIBRANS: Max error in U -> Ui is 114.3522221
GAMG:  Solving for p, Initial residual = 0.04201456515, Final residual = 9.004699823e-11, No Iterations 41
time step continuity errors : sum local = 2.198846472e-06, global = 5.749023318e-08, cumulative = 3.159987445e-07
DILUPBiCGStab:  Solving for omega, Initial residual = 0.000532252691, Final residual = 3.962019948e-31, No Iterations 18
DILUPBiCGStab:  Solving for k, Initial residual = 0.03578008428, Final residual = 8.246741046e-31, No Iterations 18
HFDIBRANS: Max error in k -> ki is 40.11801295
bounding k, min: -22.22903598 max: 541.0180532 average: 22.72284106
ExecutionTime = 3.29 s  ClockTime = 3 s

Time = 9

DILUPBiCGStab:  Solving for Ux, Initial residual = 0.1116427998, Final residual = 8.305057806e-31, No Iterations 21
DILUPBiCGStab:  Solving for Uy, Initial residual = 0.4151938873, Final residual = 2.124024252e-31, No Iterations 22
HFDIBRANS: Max error in U -> Ui is 89.97573131
GAMG:  Solving for p, Initial residual = 0.03957442682, Final residual = 7.358166259e-11, No Iterations 36
time step continuity errors : sum local = 1.69597642e-06, global = -6.166561467e-08, cumulative = 2.543331298e-07
DILUPBiCGStab:  Solving for omega, Initial residual = 0.000544757329, Final residual = 4.724448868e-31, No Iterations 17
DILUPBiCGStab:  Solving for k, Initial residual = 0.03176840798, Final residual = 5.706286604e-31, No Iterations 18
HFDIBRANS: Max error in k -> ki is 15.07568815
bounding k, min: -0.2007280178 max: 469.8679527 average: 23.22218927
ExecutionTime = 3.6 s  ClockTime = 4 s

Time = 10

DILUPBiCGStab:  Solving for Ux, Initial residual = 0.1044427454, Final residual = 9.215699846e-31, No Iterations 21
DILUPBiCGStab:  Solving for Uy, Initial residual = 0.4218364149, Final residual = 4.986605814e-31, No Iterations 21
HFDIBRANS: Max error in U -> Ui is 71.96158292
GAMG:  Solving for p, Initial residual = 0.04203694106, Final residual = 9.897328771e-11, No Iterations 37
time step continuity errors : sum local = 1.927533944e-06, global = -7.581369589e-08, cumulative = 1.785194339e-07
DILUPBiCGStab:  Solving for omega, Initial residual = 0.0006821042445, Final residual = 4.619951495e-31, No Iterations 17
DILUPBiCGStab:  Solving for k, Initial residual = 0.03143266232, Final residual = 2.435954668e-31, No Iterations 18
HFDIBRANS: Max error in k -> ki is 14.18100851
bounding k, min: -8.743160979 max: 375.4632061 average: 23.50724618
ExecutionTime = 3.9 s  ClockTime = 4 s

Time = 11

DILUPBiCGStab:  Solving for Ux, Initial residual = 0.1006674651, Final residual = 2.87050732e-31, No Iterations 21
DILUPBiCGStab:  Solving for Uy, Initial residual = 0.3866843688, Final residual = 7.113754037e-31, No Iterations 22
HFDIBRANS: Max error in U -> Ui is 113.012903
GAMG:  Solving for p, Initial residual = 0.04312833873, Final residual = 5.706640913e-11, No Iterations 34
time step continuity errors : sum local = 1.028099692e-06, global = -3.650946732e-08, cumulative = 1.420099666e-07
DILUPBiCGStab:  Solving for omega, Initial residual = 0.0006597173984, Final residual = 9.812429848e-31, No Iterations 17
DILUPBiCGStab:  Solving for k, Initial residual = 0.02921317131, Final residual = 1.400681702e-31, No Iterations 18
HFDIBRANS: Max error in k -> ki is 14.96420575
bounding k, min: -0.5069422971 max: 353.8216275 average: 23.92526769
ExecutionTime = 4.2 s  ClockTime = 4 s

Time = 12

DILUPBiCGStab:  Solving for Ux, Initial residual = 0.09963779113, Final residual = 1.355103838e-31, No Iterations 21
DILUPBiCGStab:  Solving for Uy, Initial residual = 0.4069680361, Final residual = 1.05899441e-31, No Iterations 22
HFDIBRANS: Max error in U -> Ui is 77.77122795
GAMG:  Solving for p, Initial residual = 0.0621143546, Final residual = 7.948427327e-11, No Iterations 37
time step continuity errors : sum local = 9.990522095e-07, global = -3.183505214e-08, cumulative = 1.101749145e-07
DILUPBiCGStab:  Solving for omega, Initial residual = 0.00072222985, Final residual = 1.771317684e-31, No Iterations 17
DILUPBiCGStab:  Solving for k, Initial residual = 0.03287153984, Final residual = 1.533092543e-31, No Iterations 18
HFDIBRANS: Max error in k -> ki is 15.18128814
bounding k, min: -2.782518143 max: 324.0715432 average: 23.75085498
ExecutionTime = 4.5 s  ClockTime = 5 s

Time = 13

DILUPBiCGStab:  Solving for Ux, Initial residual = 0.08109608483, Final residual = 6.673753616e-31, No Iterations 22
DILUPBiCGStab:  Solving for Uy, Initial residual = 0.3690082738, Final residual = 7.793132343e-31, No Iterations 23
HFDIBRANS: Max error in U -> Ui is 73.77582073
GAMG:  Solving for p, Initial residual = 0.06020554498, Final residual = 9.622553153e-11, No Iterations 40
time step continuity errors : sum local = 1.290786392e-06, global = -2.900017443e-08, cumulative = 8.117474006e-08
DILUPBiCGStab:  Solving for omega, Initial residual = 0.0006180892309, Final residual = 2.687686401e-31, No Iterations 17
DILUPBiCGStab:  Solving for k, Initial residual = 0.03252395186, Final residual = 9.431111786e-31, No Iterations 18
HFDIBRANS: Max error in k -> ki is 16.54967513
bounding k, min: -0.9593600312 max: 331.1320033 average: 23.5733304
ExecutionTime = 4.82 s  ClockTime = 5 s

Time = 14

DILUPBiCGStab:  Solving for Ux, Initial residual = 0.09202515115, Final residual = 4.455677282e-31, No Iterations 21
DILUPBiCGStab:  Solving for Uy, Initial residual = 0.3797530565, Final residual = 1.864059308e-31, No Iterations 22
HFDIBRANS: Max error in U -> Ui is 107.1137764
GAMG:  Solving for p, Initial residual = 0.1613481629, Final residual = 7.109652193e-11, No Iterations 38
time step continuity errors : sum local = 4.038665966e-07, global = -1.703290244e-08, cumulative = 6.414183762e-08
DILUPBiCGStab:  Solving for omega, Initial residual = 0.0006862752641, Final residual = 1.432224743e-31, No Iterations 17
DILUPBiCGStab:  Solving for k, Initial residual = 0.03682982385, Final residual = 4.145325337e-31, No Iterations 18
HFDIBRANS: Max error in k -> ki is 22.85318095
bounding k, min: -8.382902238 max: 369.0927526 average: 22.92811562
ExecutionTime = 5.13 s  ClockTime = 5 s

Time = 15

DILUPBiCGStab:  Solving for Ux, Initial residual = 0.06928712908, Final residual = 3.755977842e-31, No Iterations 21
DILUPBiCGStab:  Solving for Uy, Initial residual = 0.3340581875, Final residual = 6.053322655e-31, No Iterations 22
HFDIBRANS: Max error in U -> Ui is 69.28607677
GAMG:  Solving for p, Initial residual = 0.0743049371, Final residual = 7.334657892e-11, No Iterations 30
time step continuity errors : sum local = 8.901689723e-07, global = -4.243597553e-08, cumulative = 2.170586209e-08
DILUPBiCGStab:  Solving for omega, Initial residual = 0.0005043215109, Final residual = 7.91084297e-31, No Iterations 17
DILUPBiCGStab:  Solving for k, Initial residual = 0.0351256661, Final residual = 9.132980687e-31, No Iterations 18
HFDIBRANS: Max error in k -> ki is 17.39873004
bounding k, min: -0.8128854742 max: 373.3797861 average: 22.34223114
ExecutionTime = 5.41 s  ClockTime = 5 s

Time = 16

DILUPBiCGStab:  Solving for Ux, Initial residual = 0.07786521629, Final residual = 3.411963598e-31, No Iterations 22
DILUPBiCGStab:  Solving for Uy, Initial residual = 0.3347928355, Final residual = 7.164052768e-31, No Iterations 22
HFDIBRANS: Max error in U -> Ui is 71.15360687
GAMG:  Solving for p, Initial residual = 0.07347784793, Final residual = 9.053185124e-11, No Iterations 33
time step continuity errors : sum local = 1.190503693e-06, global = -3.041678028e-08, cumulative = -8.710918191e-09
DILUPBiCGStab:  Solving for omega, Initial residual = 0.0004982167376, Final residual = 3.926613595e-31, No Iterations 17
DILUPBiCGStab:  Solving for k, Initial residual = 0.03687614405, Final residual = 7.645066056e-31, No Iterations 18
HFDIBRANS: Max error in k -> ki is 20.35334992
bounding k, min: -6.742726505 max: 449.1141568 average: 21.77809736
ExecutionTime = 5.7 s  ClockTime = 6 s

Time = 17

DILUPBiCGStab:  Solving for Ux, Initial residual = 0.06682450656, Final residual = 3.361029731e-31, No Iterations 22
DILUPBiCGStab:  Solving for Uy, Initial residual = 0.3385115388, Final residual = 9.924032114e-31, No Iterations 22
HFDIBRANS: Max error in U -> Ui is 116.9873323
GAMG:  Solving for p, Initial residual = 0.05462863304, Final residual = 6.351502966e-11, No Iterations 32
time step continuity errors : sum local = 1.050332528e-06, global = -4.279397603e-08, cumulative = -5.150489422e-08
DILUPBiCGStab:  Solving for omega, Initial residual = 0.0003809712943, Final residual = 1.449634059e-31, No Iterations 17
DILUPBiCGStab:  Solving for k, Initial residual = 0.03573602845, Final residual = 2.935051873e-31, No Iterations 18
HFDIBRANS: Max error in k -> ki is 18.39515086
bounding k, min: -0.7965718651 max: 469.6872833 average: 21.30535781
ExecutionTime = 5.99 s  ClockTime = 6 s

Time = 18

DILUPBiCGStab:  Solving for Ux, Initial residual = 0.0645602048, Final residual = 1.87616578e-31, No Iterations 21
DILUPBiCGStab:  Solving for Uy, Initial residual = 0.3229977522, Final residual = 8.04423146e-31, No Iterations 22
HFDIBRANS: Max error in U -> Ui is 100.8735579
GAMG:  Solving for p, Initial residual = 0.05701611413, Final residual = 7.959954245e-11, No Iterations 33
time step continuity errors : sum local = 1.342661706e-06, global = 5.496278535e-08, cumulative = 3.45789113e-09
DILUPBiCGStab:  Solving for omega, Initial residual = 0.0003524936718, Final residual = 9.541846016e-31, No Iterations 17
DILUPBiCGStab:  Solving for k, Initial residual = 0.03568403684, Final residual = 7.858689443e-31, No Iterations 17
HFDIBRANS: Max error in k -> ki is 19.05004688
bounding k, min: -16.87485946 max: 494.1640946 average: 20.83441449
ExecutionTime = 6.28 s  ClockTime = 6 s

Time = 19

DILUPBiCGStab:  Solving for Ux, Initial residual = 0.05591061113, Final residual = 6.992541287e-31, No Iterations 21
DILUPBiCGStab:  Solving for Uy, Initial residual = 0.3414004499, Final residual = 5.076262425e-31, No Iterations 22
HFDIBRANS: Max error in U -> Ui is 75.72790196
GAMG:  Solving for p, Initial residual = 0.04892320465, Final residual = 8.988993477e-11, No Iterations 31
time step continuity errors : sum local = 1.46971121e-06, global = 6.597619653e-08, cumulative = 6.943408766e-08
DILUPBiCGStab:  Solving for omega, Initial residual = 0.0003126445192, Final residual = 3.603349334e-31, No Iterations 17
DILUPBiCGStab:  Solving for k, Initial residual = 0.03552699161, Final residual = 4.81905096e-31, No Iterations 18
HFDIBRANS: Max error in k -> ki is 19.09939311
bounding k, min: -1.965504146 max: 507.0070017 average: 20.41016934
ExecutionTime = 6.56 s  ClockTime = 7 s

Time = 20

DILUPBiCGStab:  Solving for Ux, Initial residual = 0.04719262248, Final residual = 7.549129152e-31, No Iterations 21
DILUPBiCGStab:  Solving for Uy, Initial residual = 0.3398944014, Final residual = 6.841979389e-32, No Iterations 23
HFDIBRANS: Max error in U -> Ui is 71.03058862
GAMG:  Solving for p, Initial residual = 0.0527578879, Final residual = 6.778041818e-11, No Iterations 30
time step continuity errors : sum local = 1.019625525e-06, global = 4.554988365e-08, cumulative = 1.149839713e-07
DILUPBiCGStab:  Solving for omega, Initial residual = 0.0002736152194, Final residual = 1.528667673e-31, No Iterations 17
DILUPBiCGStab:  Solving for k, Initial residual = 0.03454388792, Final residual = 4.009585675e-31, No Iterations 17
HFDIBRANS: Max error in k -> ki is 21.86624395
bounding k, min: -17.23923766 max: 531.318927 average: 20.03482532
ExecutionTime = 6.84 s  ClockTime = 7 s

Time = 21

DILUPBiCGStab:  Solving for Ux, Initial residual = 0.04207283047, Final residual = 5.993102087e-31, No Iterations 21
DILUPBiCGStab:  Solving for Uy, Initial residual = 0.3781048785, Final residual = 2.479436293e-31, No Iterations 22
HFDIBRANS: Max error in U -> Ui is 49.17366692
GAMG:  Solving for p, Initial residual = 0.05424952115, Final residual = 7.68898191e-11, No Iterations 33
time step continuity errors : sum local = 9.958871185e-07, global = 3.339597482e-08, cumulative = 1.483799461e-07
DILUPBiCGStab:  Solving for omega, Initial residual = 0.0002446096974, Final residual = 9.8050213e-31, No Iterations 16
DILUPBiCGStab:  Solving for k, Initial residual = 0.03403388287, Final residual = 3.24999387e-31, No Iterations 18
HFDIBRANS: Max error in k -> ki is 23.30831531
bounding k, min: -2.684216589 max: 523.3955177 average: 19.71273819
ExecutionTime = 7.13 s  ClockTime = 7 s

Time = 22

DILUPBiCGStab:  Solving for Ux, Initial residual = 0.03812462675, Final residual = 1.267354247e-31, No Iterations 22
DILUPBiCGStab:  Solving for Uy, Initial residual = 0.3749298931, Final residual = 3.910935036e-31, No Iterations 22
HFDIBRANS: Max error in U -> Ui is 50.52700243
GAMG:  Solving for p, Initial residual = 0.0624874583, Final residual = 8.301421643e-11, No Iterations 36
time step continuity errors : sum local = 9.101480748e-07, global = 3.701243439e-08, cumulative = 1.853923805e-07
DILUPBiCGStab:  Solving for omega, Initial residual = 0.0002337869841, Final residual = 7.650226334e-31, No Iterations 16
DILUPBiCGStab:  Solving for k, Initial residual = 0.03354463849, Final residual = 3.353874598e-31, No Iterations 17
HFDIBRANS: Max error in k -> ki is 24.56702147
bounding k, min: -16.32144111 max: 559.9846727 average: 19.42143938
ExecutionTime = 7.43 s  ClockTime = 7 s

Time = 23

DILUPBiCGStab:  Solving for Ux, Initial residual = 0.03463234817, Final residual = 7.053032341e-31, No Iterations 21
DILUPBiCGStab:  Solving for Uy, Initial residual = 0.3593999591, Final residual = 3.223642431e-31, No Iterations 22
HFDIBRANS: Max error in U -> Ui is 32.68623564
GAMG:  Solving for p, Initial residual = 0.08169502544, Final residual = 7.222254296e-11, No Iterations 34
time step continuity errors : sum local = 5.68720177e-07, global = 2.604016257e-08, cumulative = 2.114325431e-07
DILUPBiCGStab:  Solving for omega, Initial residual = 0.0002178974764, Final residual = 3.91543416e-31, No Iterations 16
DILUPBiCGStab:  Solving for k, Initial residual = 0.03325614657, Final residual = 3.462230181e-31, No Iterations 17
HFDIBRANS: Max error in k -> ki is 25.36258286
bounding k, min: -2.113475628 max: 527.6978433 average: 19.14470361
ExecutionTime = 7.72 s  ClockTime = 8 s

Time = 24

DILUPBiCGStab:  Solving for Ux, Initial residual = 0.03078028325, Final residual = 8.04047719e-31, No Iterations 21
DILUPBiCGStab:  Solving for Uy, Initial residual = 0.310517665, Final residual = 3.74130323e-31, No Iterations 22
HFDIBRANS: Max error in U -> Ui is 35.56719948
GAMG:  Solving for p, Initial residual = 0.1105519565, Final residual = 8.82976023e-11, No Iterations 39
time step continuity errors : sum local = 5.120845272e-07, global = 2.241972186e-08, cumulative = 2.33852265e-07
DILUPBiCGStab:  Solving for omega, Initial residual = 0.0002275364575, Final residual = 2.566536057e-31, No Iterations 16
DILUPBiCGStab:  Solving for k, Initial residual = 0.03262981801, Final residual = 7.52515626e-31, No Iterations 17
HFDIBRANS: Max error in k -> ki is 26.01992915
bounding k, min: -14.49662117 max: 599.2758425 average: 18.89000924
ExecutionTime = 8.03 s  ClockTime = 8 s

Time = 25

DILUPBiCGStab:  Solving for Ux, Initial residual = 0.02986022866, Final residual = 9.890470176e-31, No Iterations 21
DILUPBiCGStab:  Solving for Uy, Initial residual = 0.2847211631, Final residual = 4.386871885e-31, No Iterations 22
HFDIBRANS: Max error in U -> Ui is 27.69474839
GAMG:  Solving for p, Initial residual = 0.09944466668, Final residual = 9.132783142e-11, No Iterations 33
time step continuity errors : sum local = 6.129971793e-07, global = 2.672205662e-08, cumulative = 2.605743216e-07
DILUPBiCGStab:  Solving for omega, Initial residual = 0.0002160823259, Final residual = 9.785687301e-31, No Iterations 16
DILUPBiCGStab:  Solving for k, Initial residual = 0.03253973277, Final residual = 8.637492011e-31, No Iterations 17
HFDIBRANS: Max error in k -> ki is 25.75813045
bounding k, min: -1.591391816 max: 536.7334933 average: 18.67918767
ExecutionTime = 8.32 s  ClockTime = 8 s

Time = 26

DILUPBiCGStab:  Solving for Ux, Initial residual = 0.02502498915, Final residual = 1.850810582e-31, No Iterations 22
DILUPBiCGStab:  Solving for Uy, Initial residual = 0.2391614469, Final residual = 2.901013183e-31, No Iterations 23
HFDIBRANS: Max error in U -> Ui is 23.89674512
GAMG:  Solving for p, Initial residual = 0.07746109121, Final residual = 6.331571914e-11, No Iterations 37
time step continuity errors : sum local = 5.356625458e-07, global = 2.282003207e-08, cumulative = 2.833943536e-07
DILUPBiCGStab:  Solving for omega, Initial residual = 0.0002378765453, Final residual = 1.110304902e-31, No Iterations 17
DILUPBiCGStab:  Solving for k, Initial residual = 0.03113038709, Final residual = 3.387343934e-31, No Iterations 17
HFDIBRANS: Max error in k -> ki is 25.752717
bounding k, min: -13.35387565 max: 605.5012106 average: 18.49017901
ExecutionTime = 8.63 s  ClockTime = 9 s

Time = 27

DILUPBiCGStab:  Solving for Ux, Initial residual = 0.02474681415, Final residual = 6.466386044e-31, No Iterations 22
DILUPBiCGStab:  Solving for Uy, Initial residual = 0.2333502103, Final residual = 1.416022552e-31, No Iterations 23
HFDIBRANS: Max error in U -> Ui is 20.92620206
GAMG:  Solving for p, Initial residual = 0.07534400776, Final residual = 7.770588723e-11, No Iterations 31
time step continuity errors : sum local = 7.102943247e-07, global = 3.526883459e-08, cumulative = 3.186631882e-07
DILUPBiCGStab:  Solving for omega, Initial residual = 0.0002391544203, Final residual = 6.826811727e-31, No Iterations 16
DILUPBiCGStab:  Solving for k, Initial residual = 0.03060163018, Final residual = 6.162775878e-31, No Iterations 17
HFDIBRANS: Max error in k -> ki is 24.57151861
bounding k, min: -1.175917446 max: 544.5163141 average: 18.37173671
ExecutionTime = 8.93 s  ClockTime = 9 s

Time = 28

DILUPBiCGStab:  Solving for Ux, Initial residual = 0.02294615311, Final residual = 5.960058081e-31, No Iterations 22
DILUPBiCGStab:  Solving for Uy, Initial residual = 0.2158595609, Final residual = 8.008668995e-31, No Iterations 23
HFDIBRANS: Max error in U -> Ui is 17.92911172
GAMG:  Solving for p, Initial residual = 0.06790122291, Final residual = 5.805268239e-11, No Iterations 35
time step continuity errors : sum local = 5.595891704e-07, global = -2.242834088e-08, cumulative = 2.962348473e-07
DILUPBiCGStab:  Solving for omega, Initial residual = 0.0002309460789, Final residual = 4.864322586e-31, No Iterations 16
DILUPBiCGStab:  Solving for k, Initial residual = 0.02822148244, Final residual = 7.20688483e-31, No Iterations 17
HFDIBRANS: Max error in k -> ki is 23.57325994
bounding k, min: -12.00454278 max: 594.233866 average: 18.23237289
ExecutionTime = 9.24 s  ClockTime = 9 s

Time = 29

DILUPBiCGStab:  Solving for Ux, Initial residual = 0.02130737058, Final residual = 7.235197348e-31, No Iterations 22
DILUPBiCGStab:  Solving for Uy, Initial residual = 0.2280154391, Final residual = 2.337277494e-31, No Iterations 23
HFDIBRANS: Max error in U -> Ui is 13.53430082
GAMG:  Solving for p, Initial residual = 0.07225785241, Final residual = 7.724105786e-11, No Iterations 31
time step continuity errors : sum local = 7.17215923e-07, global = -2.959635388e-08, cumulative = 2.666384935e-07
DILUPBiCGStab:  Solving for omega, Initial residual = 0.0002121651912, Final residual = 4.007163595e-31, No Iterations 16
DILUPBiCGStab:  Solving for k, Initial residual = 0.02707188865, Final residual = 1.313466352e-31, No Iterations 18
HFDIBRANS: Max error in k -> ki is 21.59656067
bounding k, min: -1.107116392 max: 544.9848238 average: 18.15732103
ExecutionTime = 9.52 s  ClockTime = 10 s

Time = 30

DILUPBiCGStab:  Solving for Ux, Initial residual = 0.02015686666, Final residual = 5.068057023e-31, No Iterations 22
DILUPBiCGStab:  Solving for Uy, Initial residual = 0.2388223665, Final residual = 3.381269249e-32, No Iterations 24
HFDIBRANS: Max error in U -> Ui is 10.84436281
GAMG:  Solving for p, Initial residual = 0.07259775912, Final residual = 5.751968131e-11, No Iterations 33
time step continuity errors : sum local = 5.032364834e-07, global = -2.111252444e-08, cumulative = 2.45525969e-07
DILUPBiCGStab:  Solving for omega, Initial residual = 0.0002141236508, Final residual = 1.51911026e-31, No Iterations 17
DILUPBiCGStab:  Solving for k, Initial residual = 0.02567797101, Final residual = 4.038344251e-31, No Iterations 17
HFDIBRANS: Max error in k -> ki is 19.88533549
bounding k, min: -6.990791824 max: 577.3539172 average: 18.07054565
ExecutionTime = 9.81 s  ClockTime = 10 s

Time = 31

DILUPBiCGStab:  Solving for Ux, Initial residual = 0.01782053815, Final residual = 4.078565719e-31, No Iterations 22
DILUPBiCGStab:  Solving for Uy, Initial residual = 0.2265666185, Final residual = 6.735496098e-31, No Iterations 22
HFDIBRANS: Max error in U -> Ui is 9.200743089
GAMG:  Solving for p, Initial residual = 0.08176410696, Final residual = 7.375703003e-11, No Iterations 34
time step continuity errors : sum local = 5.637716331e-07, global = -1.659412745e-08, cumulative = 2.289318416e-07
DILUPBiCGStab:  Solving for omega, Initial residual = 0.0001969429613, Final residual = 1.998646647e-31, No Iterations 16
DILUPBiCGStab:  Solving for k, Initial residual = 0.02453819936, Final residual = 6.344588401e-31, No Iterations 17
HFDIBRANS: Max error in k -> ki is 17.7368143
bounding k, min: -1.215825488 max: 535.806206 average: 18.02367295
ExecutionTime = 10.11 s  ClockTime = 10 s

Time = 32

DILUPBiCGStab:  Solving for Ux, Initial residual = 0.0167267127, Final residual = 3.960647345e-31, No Iterations 22
DILUPBiCGStab:  Solving for Uy, Initial residual = 0.218826927, Final residual = 2.622704328e-31, No Iterations 23
HFDIBRANS: Max error in U -> Ui is 7.525227034
GAMG:  Solving for p, Initial residual = 0.09146910693, Final residual = 9.864945597e-11, No Iterations 34
time step continuity errors : sum local = 6.243509612e-07, global = -1.873786545e-08, cumulative = 2.101939761e-07
DILUPBiCGStab:  Solving for omega, Initial residual = 0.0001926424827, Final residual = 8.516988387e-31, No Iterations 16
DILUPBiCGStab:  Solving for k, Initial residual = 0.0237408961, Final residual = 1.574026657e-31, No Iterations 17
HFDIBRANS: Max error in k -> ki is 16.37997534
bounding k, min: -5.176346184 max: 566.0337386 average: 17.94269423
ExecutionTime = 10.4 s  ClockTime = 10 s

Time = 33

DILUPBiCGStab:  Solving for Ux, Initial residual = 0.01594311833, Final residual = 2.456904811e-31, No Iterations 22
DILUPBiCGStab:  Solving for Uy, Initial residual = 0.202035079, Final residual = 4.672045435e-31, No Iterations 23
HFDIBRANS: Max error in U -> Ui is 8.782227925
GAMG:  Solving for p, Initial residual = 0.1054271351, Final residual = 8.685176987e-11, No Iterations 35
time step continuity errors : sum local = 4.656065745e-07, global = -2.047351402e-08, cumulative = 1.897204621e-07
DILUPBiCGStab:  Solving for omega, Initial residual = 0.0001785252976, Final residual = 8.347134987e-31, No Iterations 16
DILUPBiCGStab:  Solving for k, Initial residual = 0.022882496, Final residual = 3.174235218e-32, No Iterations 18
HFDIBRANS: Max error in k -> ki is 14.56090276
bounding k, min: -1.147654811 max: 520.3941812 average: 17.82593099
ExecutionTime = 10.7 s  ClockTime = 11 s

Time = 34

DILUPBiCGStab:  Solving for Ux, Initial residual = 0.01458835331, Final residual = 7.18018166e-31, No Iterations 22
DILUPBiCGStab:  Solving for Uy, Initial residual = 0.1960456315, Final residual = 7.815288408e-31, No Iterations 22
HFDIBRANS: Max error in U -> Ui is 9.282261398
GAMG:  Solving for p, Initial residual = 0.091792586, Final residual = 7.043632833e-11, No Iterations 33
time step continuity errors : sum local = 4.083580549e-07, global = -1.850218944e-08, cumulative = 1.712182727e-07
DILUPBiCGStab:  Solving for omega, Initial residual = 0.0001723994326, Final residual = 8.506373141e-31, No Iterations 16
DILUPBiCGStab:  Solving for k, Initial residual = 0.02268365869, Final residual = 6.78677983e-31, No Iterations 17
HFDIBRANS: Max error in k -> ki is 15.69703792
bounding k, min: -7.06155532 max: 547.4147688 average: 17.63543497
ExecutionTime = 10.99 s  ClockTime = 11 s

Time = 35

DILUPBiCGStab:  Solving for Ux, Initial residual = 0.01317797429, Final residual = 4.432327539e-31, No Iterations 22
DILUPBiCGStab:  Solving for Uy, Initial residual = 0.1801076644, Final residual = 9.615966174e-31, No Iterations 22
HFDIBRANS: Max error in U -> Ui is 8.821997093
GAMG:  Solving for p, Initial residual = 0.08091271127, Final residual = 6.418821388e-11, No Iterations 33
time step continuity errors : sum local = 4.504317273e-07, global = -2.027700483e-08, cumulative = 1.509412678e-07
DILUPBiCGStab:  Solving for omega, Initial residual = 0.0001642737442, Final residual = 4.04602761e-31, No Iterations 16
DILUPBiCGStab:  Solving for k, Initial residual = 0.0224549695, Final residual = 1.525371475e-31, No Iterations 17
HFDIBRANS: Max error in k -> ki is 15.28448447
bounding k, min: -1.081970509 max: 507.3605205 average: 17.42129815
ExecutionTime = 11.29 s  ClockTime = 11 s

Time = 36

DILUPBiCGStab:  Solving for Ux, Initial residual = 0.01238973292, Final residual = 2.566849801e-32, No Iterations 23
DILUPBiCGStab:  Solving for Uy, Initial residual = 0.1812241124, Final residual = 4.813695557e-31, No Iterations 23
HFDIBRANS: Max error in U -> Ui is 10.70013262
GAMG:  Solving for p, Initial residual = 0.07827746634, Final residual = 9.223962273e-11, No Iterations 30
time step continuity errors : sum local = 6.750247335e-07, global = -3.083282976e-08, cumulative = 1.201084381e-07
DILUPBiCGStab:  Solving for omega, Initial residual = 0.0001589275614, Final residual = 2.424169753e-31, No Iterations 16
DILUPBiCGStab:  Solving for k, Initial residual = 0.0221176897, Final residual = 2.329685817e-31, No Iterations 17
HFDIBRANS: Max error in k -> ki is 16.30283948
bounding k, min: -6.256340395 max: 529.5819581 average: 17.18488932
ExecutionTime = 11.57 s  ClockTime = 12 s

Time = 37

DILUPBiCGStab:  Solving for Ux, Initial residual = 0.01111055182, Final residual = 1.505694625e-31, No Iterations 22
DILUPBiCGStab:  Solving for Uy, Initial residual = 0.1794999651, Final residual = 4.125545207e-31, No Iterations 22
HFDIBRANS: Max error in U -> Ui is 8.599954555
GAMG:  Solving for p, Initial residual = 0.07389448404, Final residual = 6.133132495e-11, No Iterations 31
time step continuity errors : sum local = 4.748188965e-07, global = 2.228615121e-08, cumulative = 1.423945893e-07
DILUPBiCGStab:  Solving for omega, Initial residual = 0.0001540783418, Final residual = 8.741179389e-31, No Iterations 16
DILUPBiCGStab:  Solving for k, Initial residual = 0.02203421541, Final residual = 1.914968472e-31, No Iterations 17
HFDIBRANS: Max error in k -> ki is 15.95783623
bounding k, min: -1.289550386 max: 505.6271563 average: 16.95587147
ExecutionTime = 11.85 s  ClockTime = 12 s

Time = 38

DILUPBiCGStab:  Solving for Ux, Initial residual = 0.0110777756, Final residual = 7.379208303e-31, No Iterations 22
DILUPBiCGStab:  Solving for Uy, Initial residual = 0.1897794052, Final residual = 8.874046371e-31, No Iterations 23
HFDIBRANS: Max error in U -> Ui is 9.519002981
GAMG:  Solving for p, Initial residual = 0.07345495713, Final residual = 8.338643885e-11, No Iterations 32
time step continuity errors : sum local = 6.543097403e-07, global = 1.990212979e-08, cumulative = 1.622967191e-07
DILUPBiCGStab:  Solving for omega, Initial residual = 0.0001406387276, Final residual = 4.910122869e-31, No Iterations 16
DILUPBiCGStab:  Solving for k, Initial residual = 0.02165890876, Final residual = 3.768311222e-31, No Iterations 17
HFDIBRANS: Max error in k -> ki is 16.5889125
bounding k, min: -2.814915823 max: 518.6551109 average: 16.73050782
ExecutionTime = 12.14 s  ClockTime = 12 s

Time = 39

DILUPBiCGStab:  Solving for Ux, Initial residual = 0.01059247022, Final residual = 7.93717303e-31, No Iterations 21
DILUPBiCGStab:  Solving for Uy, Initial residual = 0.2049848427, Final residual = 6.385111107e-31, No Iterations 22
HFDIBRANS: Max error in U -> Ui is 6.66404111
GAMG:  Solving for p, Initial residual = 0.07210563917, Final residual = 9.966104346e-11, No Iterations 32
time step continuity errors : sum local = 7.633779658e-07, global = 2.202680069e-08, cumulative = 1.843235198e-07
DILUPBiCGStab:  Solving for omega, Initial residual = 0.0001276818446, Final residual = 2.830081471e-31, No Iterations 16
DILUPBiCGStab:  Solving for k, Initial residual = 0.02155826194, Final residual = 2.088845303e-31, No Iterations 18
HFDIBRANS: Max error in k -> ki is 16.53941011
bounding k, min: -1.055385848 max: 497.5968713 average: 16.51820584
ExecutionTime = 12.42 s  ClockTime = 12 s

Time = 40

DILUPBiCGStab:  Solving for Ux, Initial residual = 0.01003398446, Final residual = 1.592261085e-32, No Iterations 23
DILUPBiCGStab:  Solving for Uy, Initial residual = 0.2111043009, Final residual = 6.425767304e-31, No Iterations 23
HFDIBRANS: Max error in U -> Ui is 5.901832954
GAMG:  Solving for p, Initial residual = 0.07297068351, Final residual = 6.067301906e-11, No Iterations 33
time step continuity errors : sum local = 4.528325189e-07, global = 1.906254103e-08, cumulative = 2.033860608e-07
DILUPBiCGStab:  Solving for omega, Initial residual = 0.0001163120808, Final residual = 1.706750419e-31, No Iterations 16
DILUPBiCGStab:  Solving for k, Initial residual = 0.02142096923, Final residual = 1.845517749e-31, No Iterations 17
HFDIBRANS: Max error in k -> ki is 16.90063199
bounding k, min: -7.15157454 max: 513.6940978 average: 16.32052325
ExecutionTime = 12.71 s  ClockTime = 13 s

Time = 41

DILUPBiCGStab:  Solving for Ux, Initial residual = 0.009491359511, Final residual = 6.466721983e-31, No Iterations 22
DILUPBiCGStab:  Solving for Uy, Initial residual = 0.2252120936, Final residual = 3.047457878e-31, No Iterations 23
HFDIBRANS: Max error in U -> Ui is 4.102979851
GAMG:  Solving for p, Initial residual = 0.07425145474, Final residual = 9.909944105e-11, No Iterations 33
time step continuity errors : sum local = 7.006350611e-07, global = 3.043065657e-08, cumulative = 2.338167174e-07
DILUPBiCGStab:  Solving for omega, Initial residual = 0.0001054577208, Final residual = 2.393284296e-31, No Iterations 16
DILUPBiCGStab:  Solving for k, Initial residual = 0.02158865461, Final residual = 1.598248627e-31, No Iterations 17
HFDIBRANS: Max error in k -> ki is 17.10573785
bounding k, min: -0.9654832083 max: 481.2892015 average: 16.13787912
ExecutionTime = 13 s  ClockTime = 13 s

Time = 42

DILUPBiCGStab:  Solving for Ux, Initial residual = 0.008747416698, Final residual = 2.173849473e-31, No Iterations 22
DILUPBiCGStab:  Solving for Uy, Initial residual = 0.2017441009, Final residual = 1.460076667e-31, No Iterations 23
HFDIBRANS: Max error in U -> Ui is 4.845858251
GAMG:  Solving for p, Initial residual = 0.07552695619, Final residual = 6.840560257e-11, No Iterations 34
time step continuity errors : sum local = 4.365832391e-07, global = 1.417559839e-08, cumulative = 2.479923158e-07
DILUPBiCGStab:  Solving for omega, Initial residual = 9.336749936e-05, Final residual = 9.322907131e-31, No Iterations 15
DILUPBiCGStab:  Solving for k, Initial residual = 0.02180956267, Final residual = 2.314066058e-31, No Iterations 17
HFDIBRANS: Max error in k -> ki is 17.30951371
bounding k, min: -6.364903915 max: 495.1164297 average: 15.95537127
ExecutionTime = 13.29 s  ClockTime = 13 s

Time = 43

DILUPBiCGStab:  Solving for Ux, Initial residual = 0.008226235794, Final residual = 7.369190934e-31, No Iterations 22
DILUPBiCGStab:  Solving for Uy, Initial residual = 0.1957499992, Final residual = 4.016792643e-31, No Iterations 23
HFDIBRANS: Max error in U -> Ui is 5.507499624
GAMG:  Solving for p, Initial residual = 0.0812983097, Final residual = 8.461144873e-11, No Iterations 34
time step continuity errors : sum local = 4.62968646e-07, global = 1.541749205e-08, cumulative = 2.634098078e-07
DILUPBiCGStab:  Solving for omega, Initial residual = 9.139176873e-05, Final residual = 2.49984128e-31, No Iterations 16
DILUPBiCGStab:  Solving for k, Initial residual = 0.02217711334, Final residual = 1.411681995e-32, No Iterations 18
HFDIBRANS: Max error in k -> ki is 17.60757031
bounding k, min: -0.9953867366 max: 470.7826924 average: 15.7727725
ExecutionTime = 13.58 s  ClockTime = 14 s

Time = 44

DILUPBiCGStab:  Solving for Ux, Initial residual = 0.007945790786, Final residual = 4.227320746e-31, No Iterations 22
DILUPBiCGStab:  Solving for Uy, Initial residual = 0.175994932, Final residual = 5.828110245e-31, No Iterations 22
HFDIBRANS: Max error in U -> Ui is 5.274332674
GAMG:  Solving for p, Initial residual = 0.09054505163, Final residual = 8.348451318e-11, No Iterations 34
time step continuity errors : sum local = 4.219718269e-07, global = 1.461322872e-08, cumulative = 2.780230366e-07
DILUPBiCGStab:  Solving for omega, Initial residual = 9.563055416e-05, Final residual = 5.805462982e-31, No Iterations 16
DILUPBiCGStab:  Solving for k, Initial residual = 0.02221627686, Final residual = 1.950687956e-31, No Iterations 17
HFDIBRANS: Max error in k -> ki is 17.47084077
bounding k, min: -5.747527094 max: 488.4618103 average: 15.59946511
ExecutionTime = 13.88 s  ClockTime = 14 s

Time = 45

DILUPBiCGStab:  Solving for Ux, Initial residual = 0.007240223487, Final residual = 3.371561644e-31, No Iterations 22
DILUPBiCGStab:  Solving for Uy, Initial residual = 0.1693727885, Final residual = 9.276393499e-32, No Iterations 23
HFDIBRANS: Max error in U -> Ui is 6.244949547
GAMG:  Solving for p, Initial residual = 0.1044761764, Final residual = 6.465084545e-11, No Iterations 34
time step continuity errors : sum local = 2.786104009e-07, global = 1.301905557e-08, cumulative = 2.910420921e-07
DILUPBiCGStab:  Solving for omega, Initial residual = 9.521773833e-05, Final residual = 8.099582505e-31, No Iterations 16
DILUPBiCGStab:  Solving for k, Initial residual = 0.02215820979, Final residual = 9.499230492e-33, No Iterations 18
HFDIBRANS: Max error in k -> ki is 18.03948024
bounding k, min: -0.6263850883 max: 460.0835387 average: 15.43499112
ExecutionTime = 14.17 s  ClockTime = 14 s

Time = 46

DILUPBiCGStab:  Solving for Ux, Initial residual = 0.00702221472, Final residual = 2.576837325e-31, No Iterations 22
DILUPBiCGStab:  Solving for Uy, Initial residual = 0.1606729069, Final residual = 8.476096966e-31, No Iterations 22
HFDIBRANS: Max error in U -> Ui is 5.357370105
GAMG:  Solving for p, Initial residual = 0.097371448, Final residual = 7.097749042e-11, No Iterations 33
time step continuity errors : sum local = 3.426572871e-07, global = 1.570585548e-08, cumulative = 3.067479476e-07
DILUPBiCGStab:  Solving for omega, Initial residual = 9.655627488e-05, Final residual = 7.394073008e-33, No Iterations 17
DILUPBiCGStab:  Solving for k, Initial residual = 0.02223777414, Final residual = 4.355612278e-31, No Iterations 17
HFDIBRANS: Max error in k -> ki is 17.71333819
bounding k, min: -3.943935877 max: 480.9739584 average: 15.29584221
ExecutionTime = 14.46 s  ClockTime = 15 s

Time = 47

DILUPBiCGStab:  Solving for Ux, Initial residual = 0.006560835848, Final residual = 8.298132809e-31, No Iterations 22
DILUPBiCGStab:  Solving for Uy, Initial residual = 0.1543207843, Final residual = 6.761100793e-31, No Iterations 23
HFDIBRANS: Max error in U -> Ui is 6.0474521
GAMG:  Solving for p, Initial residual = 0.09740266839, Final residual = 5.815784088e-11, No Iterations 32
time step continuity errors : sum local = 2.753192714e-07, global = 1.256105665e-08, cumulative = 3.193090043e-07
DILUPBiCGStab:  Solving for omega, Initial residual = 9.041613518e-05, Final residual = 5.639794231e-31, No Iterations 16
DILUPBiCGStab:  Solving for k, Initial residual = 0.022183188, Final residual = 1.539152342e-31, No Iterations 17
HFDIBRANS: Max error in k -> ki is 18.32695411
bounding k, min: -0.876032996 max: 453.5152312 average: 15.16933562
ExecutionTime = 14.75 s  ClockTime = 15 s

Time = 48

DILUPBiCGStab:  Solving for Ux, Initial residual = 0.006308862686, Final residual = 2.437789901e-31, No Iterations 22
DILUPBiCGStab:  Solving for Uy, Initial residual = 0.1490787367, Final residual = 9.443285022e-31, No Iterations 22
HFDIBRANS: Max error in U -> Ui is 4.537779107
GAMG:  Solving for p, Initial residual = 0.09584975265, Final residual = 7.169195871e-11, No Iterations 30
time step continuity errors : sum local = 3.530229944e-07, global = -1.082103573e-08, cumulative = 3.084879685e-07
DILUPBiCGStab:  Solving for omega, Initial residual = 8.551728696e-05, Final residual = 1.625427985e-31, No Iterations 16
DILUPBiCGStab:  Solving for k, Initial residual = 0.02202651882, Final residual = 5.742475292e-32, No Iterations 18
HFDIBRANS: Max error in k -> ki is 17.80888398
bounding k, min: -2.337060211 max: 472.0985138 average: 15.06973336
ExecutionTime = 15.03 s  ClockTime = 15 s

Time = 49

DILUPBiCGStab:  Solving for Ux, Initial residual = 0.006079378648, Final residual = 3.132168989e-31, No Iterations 22
DILUPBiCGStab:  Solving for Uy, Initial residual = 0.1474898136, Final residual = 4.62537976e-31, No Iterations 23
HFDIBRANS: Max error in U -> Ui is 4.446264995
GAMG:  Solving for p, Initial residual = 0.09805878281, Final residual = 6.145646684e-11, No Iterations 32
time step continuity errors : sum local = 2.79411336e-07, global = -1.283220425e-08, cumulative = 2.956557643e-07
DILUPBiCGStab:  Solving for omega, Initial residual = 7.538696362e-05, Final residual = 1.927868642e-32, No Iterations 17
DILUPBiCGStab:  Solving for k, Initial residual = 0.02199146158, Final residual = 1.366917105e-31, No Iterations 17
HFDIBRANS: Max error in k -> ki is 18.49692656
bounding k, min: -0.8957852914 max: 444.1007429 average: 14.97539078
ExecutionTime = 15.32 s  ClockTime = 15 s

Time = 50

DILUPBiCGStab:  Solving for Ux, Initial residual = 0.005925577653, Final residual = 6.782384281e-31, No Iterations 21
DILUPBiCGStab:  Solving for Uy, Initial residual = 0.1481478264, Final residual = 2.282756453e-31, No Iterations 23
HFDIBRANS: Max error in U -> Ui is 2.907412255
GAMG:  Solving for p, Initial residual = 0.0999347864, Final residual = 8.828529122e-11, No Iterations 33
time step continuity errors : sum local = 3.9100208e-07, global = -1.374258704e-08, cumulative = 2.819131772e-07
DILUPBiCGStab:  Solving for omega, Initial residual = 6.694541513e-05, Final residual = 9.869626908e-31, No Iterations 16
DILUPBiCGStab:  Solving for k, Initial residual = 0.02203106206, Final residual = 5.345445477e-31, No Iterations 17
HFDIBRANS: Max error in k -> ki is 17.85289833
bounding k, min: -2.519331852 max: 461.7356427 average: 14.89513634
ExecutionTime = 15.61 s  ClockTime = 16 s

Time = 51

DILUPBiCGStab:  Solving for Ux, Initial residual = 0.005675246607, Final residual = 8.413495053e-31, No Iterations 22
DILUPBiCGStab:  Solving for Uy, Initial residual = 0.1399434942, Final residual = 7.910506113e-31, No Iterations 23
HFDIBRANS: Max error in U -> Ui is 2.594901586
GAMG:  Solving for p, Initial residual = 0.09477964463, Final residual = 8.910347788e-11, No Iterations 34
time step continuity errors : sum local = 3.847413861e-07, global = -1.036027381e-08, cumulative = 2.715529034e-07
DILUPBiCGStab:  Solving for omega, Initial residual = 6.183188841e-05, Final residual = 5.730275102e-31, No Iterations 15
DILUPBiCGStab:  Solving for k, Initial residual = 0.02192809859, Final residual = 1.799102039e-31, No Iterations 17
HFDIBRANS: Max error in k -> ki is 18.75469964
bounding k, min: -0.6852970923 max: 432.7233288 average: 14.80330115
ExecutionTime = 15.9 s  ClockTime = 16 s

Time = 52

DILUPBiCGStab:  Solving for Ux, Initial residual = 0.005368995852, Final residual = 3.84594058e-31, No Iterations 22
DILUPBiCGStab:  Solving for Uy, Initial residual = 0.1410142304, Final residual = 2.841886959e-31, No Iterations 23
HFDIBRANS: Max error in U -> Ui is 2.73329261
GAMG:  Solving for p, Initial residual = 0.08546231647, Final residual = 7.49541546e-11, No Iterations 34
time step continuity errors : sum local = 3.572323709e-07, global = -1.064940673e-08, cumulative = 2.609034967e-07
DILUPBiCGStab:  Solving for omega, Initial residual = 6.524860171e-05, Final residual = 6.533660155e-31, No Iterations 15
DILUPBiCGStab:  Solving for k, Initial residual = 0.02218151325, Final residual = 2.538516863e-31, No Iterations 17
HFDIBRANS: Max error in k -> ki is 17.87937831
bounding k, min: -2.224961633 max: 448.7020211 average: 14.71662541
ExecutionTime = 16.19 s  ClockTime = 16 s

Time = 53

DILUPBiCGStab:  Solving for Ux, Initial residual = 0.005100597234, Final residual = 4.915506671e-31, No Iterations 21
DILUPBiCGStab:  Solving for Uy, Initial residual = 0.1362590904, Final residual = 4.158452708e-31, No Iterations 23
HFDIBRANS: Max error in U -> Ui is 2.848719921
GAMG:  Solving for p, Initial residual = 0.08003905674, Final residual = 7.137230905e-11, No Iterations 34
time step continuity errors : sum local = 3.615284766e-07, global = -1.075003655e-08, cumulative = 2.501534602e-07
DILUPBiCGStab:  Solving for omega, Initial residual = 6.861726359e-05, Final residual = 1.141783815e-31, No Iterations 16
DILUPBiCGStab:  Solving for k, Initial residual = 0.02276545402, Final residual = 2.704141493e-31, No Iterations 17
HFDIBRANS: Max error in k -> ki is 18.87503307
bounding k, min: -0.9461980649 max: 420.5881052 average: 14.61203057
ExecutionTime = 16.49 s  ClockTime = 17 s

Time = 54

DILUPBiCGStab:  Solving for Ux, Initial residual = 0.004856014673, Final residual = 3.054837523e-31, No Iterations 22
DILUPBiCGStab:  Solving for Uy, Initial residual = 0.1396045378, Final residual = 2.358294095e-31, No Iterations 23
HFDIBRANS: Max error in U -> Ui is 3.238561295
GAMG:  Solving for p, Initial residual = 0.07655629423, Final residual = 5.62620471e-11, No Iterations 34
time step continuity errors : sum local = 2.999716971e-07, global = -1.333335851e-08, cumulative = 2.368201017e-07
DILUPBiCGStab:  Solving for omega, Initial residual = 7.280266288e-05, Final residual = 8.214992657e-31, No Iterations 15
DILUPBiCGStab:  Solving for k, Initial residual = 0.02319668541, Final residual = 6.64983721e-32, No Iterations 17
HFDIBRANS: Max error in k -> ki is 17.83821704
bounding k, min: -3.072479689 max: 433.797245 average: 14.51354494
ExecutionTime = 16.78 s  ClockTime = 17 s

Time = 55

DILUPBiCGStab:  Solving for Ux, Initial residual = 0.004683320189, Final residual = 4.818771735e-31, No Iterations 21
DILUPBiCGStab:  Solving for Uy, Initial residual = 0.1449768347, Final residual = 2.510272062e-31, No Iterations 23
HFDIBRANS: Max error in U -> Ui is 2.874631199
GAMG:  Solving for p, Initial residual = 0.07388543414, Final residual = 8.654302628e-11, No Iterations 33
time step continuity errors : sum local = 4.699100397e-07, global = -1.425156278e-08, cumulative = 2.225685389e-07
DILUPBiCGStab:  Solving for omega, Initial residual = 7.345458073e-05, Final residual = 6.645629767e-31, No Iterations 15
DILUPBiCGStab:  Solving for k, Initial residual = 0.02366190778, Final residual = 5.503275091e-31, No Iterations 16
HFDIBRANS: Max error in k -> ki is 18.97174775
bounding k, min: -0.9725773789 max: 406.4932509 average: 14.39848931
ExecutionTime = 17.07 s  ClockTime = 17 s

Time = 56

DILUPBiCGStab:  Solving for Ux, Initial residual = 0.004503329323, Final residual = 2.648025523e-31, No Iterations 22
DILUPBiCGStab:  Solving for Uy, Initial residual = 0.156612783, Final residual = 1.978223215e-31, No Iterations 23
HFDIBRANS: Max error in U -> Ui is 2.843725398
GAMG:  Solving for p, Initial residual = 0.07179679191, Final residual = 7.327054674e-11, No Iterations 33
time step continuity errors : sum local = 4.033753212e-07, global = 1.77885324e-08, cumulative = 2.403570713e-07
DILUPBiCGStab:  Solving for omega, Initial residual = 7.302252458e-05, Final residual = 7.356308455e-31, No Iterations 15
DILUPBiCGStab:  Solving for k, Initial residual = 0.02376881503, Final residual = 2.394364425e-31, No Iterations 16
HFDIBRANS: Max error in k -> ki is 17.79342893
bounding k, min: -3.738362171 max: 419.4393481 average: 14.29401248
ExecutionTime = 17.36 s  ClockTime = 17 s

Time = 57

DILUPBiCGStab:  Solving for Ux, Initial residual = 0.004440806182, Final residual = 6.890346568e-31, No Iterations 21
DILUPBiCGStab:  Solving for Uy, Initial residual = 0.1714330081, Final residual = 6.224198738e-31, No Iterations 22
HFDIBRANS: Max error in U -> Ui is 2.349923038
GAMG:  Solving for p, Initial residual = 0.07045882769, Final residual = 7.827626184e-11, No Iterations 32
time step continuity errors : sum local = 4.246947127e-07, global = 1.331982168e-08, cumulative = 2.53676893e-07
DILUPBiCGStab:  Solving for omega, Initial residual = 6.91474528e-05, Final residual = 7.06180634e-31, No Iterations 16
DILUPBiCGStab:  Solving for k, Initial residual = 0.02401065629, Final residual = 2.824505309e-31, No Iterations 16
HFDIBRANS: Max error in k -> ki is 18.99751781
bounding k, min: -0.991500871 max: 394.3731775 average: 14.17908242
ExecutionTime = 17.64 s  ClockTime = 18 s

Time = 58

DILUPBiCGStab:  Solving for Ux, Initial residual = 0.004313965943, Final residual = 8.301741279e-31, No Iterations 22
DILUPBiCGStab:  Solving for Uy, Initial residual = 0.180217608, Final residual = 2.348009634e-31, No Iterations 23
HFDIBRANS: Max error in U -> Ui is 2.145008285
GAMG:  Solving for p, Initial residual = 0.0699702587, Final residual = 7.074582506e-11, No Iterations 30
time step continuity errors : sum local = 3.74573727e-07, global = 1.262214392e-08, cumulative = 2.662990369e-07
DILUPBiCGStab:  Solving for omega, Initial residual = 6.476436558e-05, Final residual = 5.481004063e-32, No Iterations 16
DILUPBiCGStab:  Solving for k, Initial residual = 0.02390690574, Final residual = 1.83629582e-32, No Iterations 17
HFDIBRANS: Max error in k -> ki is 17.6494823
bounding k, min: -5.013372267 max: 404.7514487 average: 14.07649715
ExecutionTime = 17.93 s  ClockTime = 18 s

Time = 59

DILUPBiCGStab:  Solving for Ux, Initial residual = 0.004199227509, Final residual = 8.004729722e-31, No Iterations 21
DILUPBiCGStab:  Solving for Uy, Initial residual = 0.1845251867, Final residual = 9.308727167e-31, No Iterations 22
HFDIBRANS: Max error in U -> Ui is 1.868674196
GAMG:  Solving for p, Initial residual = 0.06949558534, Final residual = 8.011132794e-11, No Iterations 30
time step continuity errors : sum local = 4.059225783e-07, global = 1.800029742e-08, cumulative = 2.842993343e-07
DILUPBiCGStab:  Solving for omega, Initial residual = 6.152591868e-05, Final residual = 9.456670225e-31, No Iterations 15
DILUPBiCGStab:  Solving for k, Initial residual = 0.02414336159, Final residual = 3.610182079e-31, No Iterations 16
HFDIBRANS: Max error in k -> ki is 18.97040929
bounding k, min: -1.002148333 max: 381.8850411 average: 13.96414876
ExecutionTime = 18.26 s  ClockTime = 18 s

Time = 60

DILUPBiCGStab:  Solving for Ux, Initial residual = 0.003972995253, Final residual = 4.037637551e-31, No Iterations 21
DILUPBiCGStab:  Solving for Uy, Initial residual = 0.1697793267, Final residual = 5.975287254e-31, No Iterations 23
HFDIBRANS: Max error in U -> Ui is 1.981722505
GAMG:  Solving for p, Initial residual = 0.06969624305, Final residual = 6.326250799e-11, No Iterations 32
time step continuity errors : sum local = 3.03674274e-07, global = 1.370515603e-08, cumulative = 2.980044903e-07
DILUPBiCGStab:  Solving for omega, Initial residual = 5.568051892e-05, Final residual = 1.400793164e-31, No Iterations 16
DILUPBiCGStab:  Solving for k, Initial residual = 0.02406555403, Final residual = 5.113477507e-32, No Iterations 17
HFDIBRANS: Max error in k -> ki is 17.4699238
bounding k, min: -6.576686742 max: 388.8500752 average: 13.85925077
ExecutionTime = 18.55 s  ClockTime = 19 s

Time = 61

DILUPBiCGStab:  Solving for Ux, Initial residual = 0.003749082003, Final residual = 6.376090309e-32, No Iterations 22
DILUPBiCGStab:  Solving for Uy, Initial residual = 0.1562543789, Final residual = 1.351490239e-31, No Iterations 23
HFDIBRANS: Max error in U -> Ui is 1.895458516
GAMG:  Solving for p, Initial residual = 0.06987869307, Final residual = 6.923341351e-11, No Iterations 33
time step continuity errors : sum local = 3.123550777e-07, global = 1.026066997e-08, cumulative = 3.082651603e-07
DILUPBiCGStab:  Solving for omega, Initial residual = 5.074710254e-05, Final residual = 9.873989168e-32, No Iterations 16
DILUPBiCGStab:  Solving for k, Initial residual = 0.02419435495, Final residual = 3.885840342e-31, No Iterations 16
HFDIBRANS: Max error in k -> ki is 18.95611777
bounding k, min: -0.7509484514 max: 369.1586 average: 13.74877297
ExecutionTime = 18.84 s  ClockTime = 19 s

Time = 62

DILUPBiCGStab:  Solving for Ux, Initial residual = 0.003455187004, Final residual = 3.008461415e-31, No Iterations 21
DILUPBiCGStab:  Solving for Uy, Initial residual = 0.1370385638, Final residual = 9.185905231e-31, No Iterations 22
HFDIBRANS: Max error in U -> Ui is 2.008761949
GAMG:  Solving for p, Initial residual = 0.0726562801, Final residual = 7.414285058e-11, No Iterations 33
time step continuity errors : sum local = 3.235244061e-07, global = 1.089459504e-08, cumulative = 3.191597553e-07
DILUPBiCGStab:  Solving for omega, Initial residual = 4.685287191e-05, Final residual = 6.474671424e-31, No Iterations 15
DILUPBiCGStab:  Solving for k, Initial residual = 0.02405785025, Final residual = 3.278696679e-31, No Iterations 16
HFDIBRANS: Max error in k -> ki is 17.24345867
bounding k, min: -4.584389559 max: 374.2833246 average: 13.64823674
ExecutionTime = 19.14 s  ClockTime = 19 s

Time = 63

DILUPBiCGStab:  Solving for Ux, Initial residual = 0.003222794398, Final residual = 4.077471263e-31, No Iterations 21
DILUPBiCGStab:  Solving for Uy, Initial residual = 0.1255939104, Final residual = 1.854052008e-31, No Iterations 23
HFDIBRANS: Max error in U -> Ui is 2.072244172
GAMG:  Solving for p, Initial residual = 0.07320674358, Final residual = 8.147871081e-11, No Iterations 33
time step continuity errors : sum local = 3.397562888e-07, global = 1.14380886e-08, cumulative = 3.305978439e-07
DILUPBiCGStab:  Solving for omega, Initial residual = 4.494004378e-05, Final residual = 2.439482615e-31, No Iterations 16
DILUPBiCGStab:  Solving for k, Initial residual = 0.02424210537, Final residual = 1.416969944e-31, No Iterations 17
HFDIBRANS: Max error in k -> ki is 18.91084693
bounding k, min: -1.02134549 max: 357.6070158 average: 13.54684506
ExecutionTime = 19.43 s  ClockTime = 19 s

Time = 64

DILUPBiCGStab:  Solving for Ux, Initial residual = 0.003011548528, Final residual = 3.046460488e-31, No Iterations 21
DILUPBiCGStab:  Solving for Uy, Initial residual = 0.1154890765, Final residual = 4.19952406e-31, No Iterations 22
HFDIBRANS: Max error in U -> Ui is 1.798370407
GAMG:  Solving for p, Initial residual = 0.07486479232, Final residual = 8.767405074e-11, No Iterations 33
time step continuity errors : sum local = 3.628879549e-07, global = -1.732786914e-08, cumulative = 3.132699748e-07
DILUPBiCGStab:  Solving for omega, Initial residual = 4.41255267e-05, Final residual = 1.687436896e-31, No Iterations 16
DILUPBiCGStab:  Solving for k, Initial residual = 0.02415276163, Final residual = 2.965266367e-32, No Iterations 17
HFDIBRANS: Max error in k -> ki is 17.00683026
bounding k, min: -5.388771682 max: 360.5484601 average: 13.45425523
ExecutionTime = 19.72 s  ClockTime = 20 s

Time = 65

DILUPBiCGStab:  Solving for Ux, Initial residual = 0.002832824342, Final residual = 4.22169759e-31, No Iterations 22
DILUPBiCGStab:  Solving for Uy, Initial residual = 0.1157330008, Final residual = 3.146904813e-31, No Iterations 23
HFDIBRANS: Max error in U -> Ui is 1.730649067
GAMG:  Solving for p, Initial residual = 0.0733696927, Final residual = 8.08057691e-11, No Iterations 33
time step continuity errors : sum local = 3.300684833e-07, global = -1.583844022e-08, cumulative = 2.974315346e-07
DILUPBiCGStab:  Solving for omega, Initial residual = 4.265688585e-05, Final residual = 4.694886157e-31, No Iterations 15
DILUPBiCGStab:  Solving for k, Initial residual = 0.024286984, Final residual = 8.246861786e-32, No Iterations 17
HFDIBRANS: Max error in k -> ki is 18.8454974
bounding k, min: -1.028173629 max: 347.0044467 average: 13.36235071
ExecutionTime = 20.01 s  ClockTime = 20 s

Time = 66

DILUPBiCGStab:  Solving for Ux, Initial residual = 0.002770882979, Final residual = 8.480683695e-31, No Iterations 21
DILUPBiCGStab:  Solving for Uy, Initial residual = 0.1147560786, Final residual = 7.41999947e-31, No Iterations 22
HFDIBRANS: Max error in U -> Ui is 1.570000514
GAMG:  Solving for p, Initial residual = 0.07252999536, Final residual = 5.933239341e-11, No Iterations 33
time step continuity errors : sum local = 2.477776423e-07, global = -1.138329442e-08, cumulative = 2.860482401e-07
DILUPBiCGStab:  Solving for omega, Initial residual = 4.134107167e-05, Final residual = 1.201493311e-31, No Iterations 16
DILUPBiCGStab:  Solving for k, Initial residual = 0.02416901477, Final residual = 5.144020281e-31, No Iterations 16
HFDIBRANS: Max error in k -> ki is 16.77165784
bounding k, min: -5.090207837 max: 348.8320067 average: 13.27848248
ExecutionTime = 20.3 s  ClockTime = 20 s

Time = 67

DILUPBiCGStab:  Solving for Ux, Initial residual = 0.002704115599, Final residual = 7.16750472e-31, No Iterations 22
DILUPBiCGStab:  Solving for Uy, Initial residual = 0.1181927316, Final residual = 1.767868013e-31, No Iterations 23
HFDIBRANS: Max error in U -> Ui is 1.479678919
GAMG:  Solving for p, Initial residual = 0.06858748993, Final residual = 7.929822681e-11, No Iterations 32
time step continuity errors : sum local = 3.35814176e-07, global = -1.099224815e-08, cumulative = 2.75055992e-07
DILUPBiCGStab:  Solving for omega, Initial residual = 4.06623269e-05, Final residual = 6.106396314e-31, No Iterations 15
DILUPBiCGStab:  Solving for k, Initial residual = 0.02424270761, Final residual = 9.494758575e-31, No Iterations 16
HFDIBRANS: Max error in k -> ki is 18.82328957
bounding k, min: -1.03331772 max: 338.3147655 average: 13.19591118
ExecutionTime = 20.58 s  ClockTime = 21 s

Time = 68

DILUPBiCGStab:  Solving for Ux, Initial residual = 0.002673448262, Final residual = 7.397352447e-31, No Iterations 21
DILUPBiCGStab:  Solving for Uy, Initial residual = 0.1175003694, Final residual = 5.733025009e-31, No Iterations 22
HFDIBRANS: Max error in U -> Ui is 1.309490583
GAMG:  Solving for p, Initial residual = 0.06569728997, Final residual = 6.716046998e-11, No Iterations 31
time step continuity errors : sum local = 2.952986333e-07, global = -1.330416708e-08, cumulative = 2.617518249e-07
DILUPBiCGStab:  Solving for omega, Initial residual = 3.967796445e-05, Final residual = 6.627518917e-32, No Iterations 16
DILUPBiCGStab:  Solving for k, Initial residual = 0.02420690166, Final residual = 2.014191217e-31, No Iterations 16
HFDIBRANS: Max error in k -> ki is 16.51622056
bounding k, min: -5.622486435 max: 339.1235922 average: 13.11898375
ExecutionTime = 20.86 s  ClockTime = 21 s

Time = 69

DILUPBiCGStab:  Solving for Ux, Initial residual = 0.002582848224, Final residual = 3.85619802e-31, No Iterations 21
DILUPBiCGStab:  Solving for Uy, Initial residual = 0.1189003118, Final residual = 1.017263562e-31, No Iterations 23
HFDIBRANS: Max error in U -> Ui is 1.343298945
GAMG:  Solving for p, Initial residual = 0.06191309035, Final residual = 5.680670577e-11, No Iterations 29
time step continuity errors : sum local = 2.555827666e-07, global = -1.005501057e-08, cumulative = 2.516968144e-07
DILUPBiCGStab:  Solving for omega, Initial residual = 3.852946707e-05, Final residual = 3.984032065e-31, No Iterations 15
DILUPBiCGStab:  Solving for k, Initial residual = 0.0243949483, Final residual = 2.706856616e-31, No Iterations 16
HFDIBRANS: Max error in k -> ki is 18.77755156
bounding k, min: -1.403487779 max: 331.568609 average: 13.04285237
ExecutionTime = 21.14 s  ClockTime = 21 s

Time = 70

DILUPBiCGStab:  Solving for Ux, Initial residual = 0.002500004643, Final residual = 3.867318026e-31, No Iterations 21
DILUPBiCGStab:  Solving for Uy, Initial residual = 0.1154991113, Final residual = 1.981608216e-31, No Iterations 23
HFDIBRANS: Max error in U -> Ui is 1.200501526
GAMG:  Solving for p, Initial residual = 0.06005942099, Final residual = 6.263626646e-11, No Iterations 29
time step continuity errors : sum local = 2.912149328e-07, global = -1.37932474e-08, cumulative = 2.37903567e-07
DILUPBiCGStab:  Solving for omega, Initial residual = 3.821780317e-05, Final residual = 6.760857011e-31, No Iterations 15
DILUPBiCGStab:  Solving for k, Initial residual = 0.02442005675, Final residual = 1.85866543e-31, No Iterations 16
HFDIBRANS: Max error in k -> ki is 16.26764404
bounding k, min: -3.869805981 max: 331.0717049 average: 12.96992152
ExecutionTime = 21.41 s  ClockTime = 21 s

Time = 71

DILUPBiCGStab:  Solving for Ux, Initial residual = 0.002408981919, Final residual = 1.268377988e-31, No Iterations 22
DILUPBiCGStab:  Solving for Uy, Initial residual = 0.1139511224, Final residual = 7.757355591e-31, No Iterations 22
HFDIBRANS: Max error in U -> Ui is 1.209999369
GAMG:  Solving for p, Initial residual = 0.05761505804, Final residual = 8.491261694e-11, No Iterations 30
time step continuity errors : sum local = 4.010016801e-07, global = -1.107792986e-08, cumulative = 2.268256371e-07
DILUPBiCGStab:  Solving for omega, Initial residual = 3.898187586e-05, Final residual = 2.209572318e-31, No Iterations 15
DILUPBiCGStab:  Solving for k, Initial residual = 0.02478593099, Final residual = 4.885150808e-31, No Iterations 16
HFDIBRANS: Max error in k -> ki is 18.71599624
bounding k, min: -1.416460475 max: 326.0205156 average: 12.89795781
ExecutionTime = 21.69 s  ClockTime = 22 s

Time = 72

DILUPBiCGStab:  Solving for Ux, Initial residual = 0.002305451976, Final residual = 8.623231973e-31, No Iterations 21
DILUPBiCGStab:  Solving for Uy, Initial residual = 0.1121765508, Final residual = 2.359775017e-33, No Iterations 24
HFDIBRANS: Max error in U -> Ui is 1.317119263
GAMG:  Solving for p, Initial residual = 0.05684545178, Final residual = 7.565742916e-11, No Iterations 31
time step continuity errors : sum local = 3.630289568e-07, global = -1.175569383e-08, cumulative = 2.150699433e-07
DILUPBiCGStab:  Solving for omega, Initial residual = 3.956470377e-05, Final residual = 4.792986765e-32, No Iterations 16
DILUPBiCGStab:  Solving for k, Initial residual = 0.02485774716, Final residual = 2.221028307e-32, No Iterations 17
HFDIBRANS: Max error in k -> ki is 16.01538242
bounding k, min: -4.895173588 max: 324.5357508 average: 12.82738139
ExecutionTime = 21.98 s  ClockTime = 22 s

Time = 73

DILUPBiCGStab:  Solving for Ux, Initial residual = 0.00215517803, Final residual = 6.30423802e-32, No Iterations 22
DILUPBiCGStab:  Solving for Uy, Initial residual = 0.1117107304, Final residual = 4.094503213e-31, No Iterations 22
HFDIBRANS: Max error in U -> Ui is 1.115666432
GAMG:  Solving for p, Initial residual = 0.05570584675, Final residual = 7.813786499e-11, No Iterations 31
time step continuity errors : sum local = 3.74913778e-07, global = 1.862493678e-08, cumulative = 2.336948801e-07
DILUPBiCGStab:  Solving for omega, Initial residual = 4.039077904e-05, Final residual = 4.77396008e-31, No Iterations 15
DILUPBiCGStab:  Solving for k, Initial residual = 0.02518986203, Final residual = 1.469888139e-31, No Iterations 16
HFDIBRANS: Max error in k -> ki is 18.64815783
bounding k, min: -1.425025891 max: 321.5325981 average: 12.75824774
ExecutionTime = 22.26 s  ClockTime = 22 s

Time = 74

DILUPBiCGStab:  Solving for Ux, Initial residual = 0.00209291387, Final residual = 3.516428706e-31, No Iterations 21
DILUPBiCGStab:  Solving for Uy, Initial residual = 0.1154980574, Final residual = 6.045855945e-31, No Iterations 23
HFDIBRANS: Max error in U -> Ui is 1.205323474
GAMG:  Solving for p, Initial residual = 0.05539883554, Final residual = 7.774462022e-11, No Iterations 31
time step continuity errors : sum local = 3.713140186e-07, global = 1.810299117e-08, cumulative = 2.517978712e-07
DILUPBiCGStab:  Solving for omega, Initial residual = 3.948720016e-05, Final residual = 2.240619727e-31, No Iterations 15
DILUPBiCGStab:  Solving for k, Initial residual = 0.02519505018, Final residual = 8.977339854e-31, No Iterations 16
HFDIBRANS: Max error in k -> ki is 15.79234987
bounding k, min: -5.422643284 max: 319.2501244 average: 12.68938811
ExecutionTime = 22.54 s  ClockTime = 23 s

Time = 75

DILUPBiCGStab:  Solving for Ux, Initial residual = 0.002042978939, Final residual = 3.377388492e-31, No Iterations 21
DILUPBiCGStab:  Solving for Uy, Initial residual = 0.1220875752, Final residual = 7.834743194e-31, No Iterations 22
HFDIBRANS: Max error in U -> Ui is 1.110166826
GAMG:  Solving for p, Initial residual = 0.05478093089, Final residual = 8.315504996e-11, No Iterations 31
time step continuity errors : sum local = 3.909799472e-07, global = 1.408886923e-08, cumulative = 2.658867405e-07
DILUPBiCGStab:  Solving for omega, Initial residual = 3.808152412e-05, Final residual = 4.552905531e-31, No Iterations 15
DILUPBiCGStab:  Solving for k, Initial residual = 0.02538012101, Final residual = 3.474677191e-31, No Iterations 16
HFDIBRANS: Max error in k -> ki is 18.58835048
bounding k, min: -1.043761936 max: 317.7521529 average: 12.6224703
ExecutionTime = 22.82 s  ClockTime = 23 s

Time = 76

DILUPBiCGStab:  Solving for Ux, Initial residual = 0.002007654759, Final residual = 1.459536096e-31, No Iterations 22
DILUPBiCGStab:  Solving for Uy, Initial residual = 0.1237644359, Final residual = 2.712154477e-31, No Iterations 23
HFDIBRANS: Max error in U -> Ui is 1.076817005
GAMG:  Solving for p, Initial residual = 0.05448615837, Final residual = 6.926837974e-11, No Iterations 31
time step continuity errors : sum local = 3.191540818e-07, global = 1.141473595e-08, cumulative = 2.773014764e-07
DILUPBiCGStab:  Solving for omega, Initial residual = 3.487691396e-05, Final residual = 2.416661726e-32, No Iterations 16
DILUPBiCGStab:  Solving for k, Initial residual = 0.0253164147, Final residual = 6.736422515e-31, No Iterations 16
HFDIBRANS: Max error in k -> ki is 15.59450017
bounding k, min: -5.839710158 max: 314.9344192 average: 12.55523626
ExecutionTime = 23.1 s  ClockTime = 23 s

Time = 77

DILUPBiCGStab:  Solving for Ux, Initial residual = 0.00196784492, Final residual = 9.945410122e-31, No Iterations 21
DILUPBiCGStab:  Solving for Uy, Initial residual = 0.1264274388, Final residual = 1.8660349e-31, No Iterations 23
HFDIBRANS: Max error in U -> Ui is 1.082424903
GAMG:  Solving for p, Initial residual = 0.05406767884, Final residual = 7.825722764e-11, No Iterations 30
time step continuity errors : sum local = 3.514436501e-07, global = 1.751805866e-08, cumulative = 2.948195351e-07
DILUPBiCGStab:  Solving for omega, Initial residual = 3.275402949e-05, Final residual = 2.143304218e-31, No Iterations 15
DILUPBiCGStab:  Solving for k, Initial residual = 0.02542498135, Final residual = 2.70774411e-31, No Iterations 16
HFDIBRANS: Max error in k -> ki is 18.52855764
bounding k, min: -1.171618487 max: 314.2021547 average: 12.48993331
ExecutionTime = 23.37 s  ClockTime = 23 s

Time = 78

DILUPBiCGStab:  Solving for Ux, Initial residual = 0.001896812679, Final residual = 9.070521932e-31, No Iterations 21
DILUPBiCGStab:  Solving for Uy, Initial residual = 0.1202686983, Final residual = 3.558263205e-31, No Iterations 23
HFDIBRANS: Max error in U -> Ui is 1.03006063
GAMG:  Solving for p, Initial residual = 0.05440601134, Final residual = 8.210947749e-11, No Iterations 29
time step continuity errors : sum local = 3.600843972e-07, global = 1.257284101e-08, cumulative = 3.073923761e-07
DILUPBiCGStab:  Solving for omega, Initial residual = 3.005250173e-05, Final residual = 9.258742817e-31, No Iterations 15
DILUPBiCGStab:  Solving for k, Initial residual = 0.02544420801, Final residual = 4.167003559e-31, No Iterations 16
HFDIBRANS: Max error in k -> ki is 15.39762175
bounding k, min: -7.22178357 max: 310.9750218 average: 12.42488378
ExecutionTime = 23.64 s  ClockTime = 24 s

Time = 79

DILUPBiCGStab:  Solving for Ux, Initial residual = 0.001814399431, Final residual = 2.461635683e-31, No Iterations 21
DILUPBiCGStab:  Solving for Uy, Initial residual = 0.1155173061, Final residual = 6.024062587e-31, No Iterations 22
HFDIBRANS: Max error in U -> Ui is 0.9852320016
GAMG:  Solving for p, Initial residual = 0.0545736757, Final residual = 8.756918229e-11, No Iterations 27
time step continuity errors : sum local = 3.750591809e-07, global = 1.094162357e-08, cumulative = 3.183339997e-07
DILUPBiCGStab:  Solving for omega, Initial residual = 2.845795103e-05, Final residual = 3.70642511e-31, No Iterations 15
DILUPBiCGStab:  Solving for k, Initial residual = 0.02557497867, Final residual = 2.520008593e-31, No Iterations 16
HFDIBRANS: Max error in k -> ki is 18.46737026
bounding k, min: -1.047364715 max: 310.4820968 average: 12.36177709
ExecutionTime = 23.91 s  ClockTime = 24 s

Time = 80

DILUPBiCGStab:  Solving for Ux, Initial residual = 0.001719021505, Final residual = 6.207084623e-31, No Iterations 21
DILUPBiCGStab:  Solving for Uy, Initial residual = 0.1048998228, Final residual = 2.795814769e-31, No Iterations 23
HFDIBRANS: Max error in U -> Ui is 0.9784026818
GAMG:  Solving for p, Initial residual = 0.05468420813, Final residual = 8.708620238e-11, No Iterations 28
time step continuity errors : sum local = 3.671597231e-07, global = 1.87288446e-08, cumulative = 3.370628443e-07
DILUPBiCGStab:  Solving for omega, Initial residual = 2.719052385e-05, Final residual = 4.987028052e-31, No Iterations 15
DILUPBiCGStab:  Solving for k, Initial residual = 0.02559999491, Final residual = 2.391958342e-31, No Iterations 16
HFDIBRANS: Max error in k -> ki is 15.22780448
bounding k, min: -7.281949841 max: 307.0413266 average: 12.29954379
ExecutionTime = 24.17 s  ClockTime = 24 s

Time = 81

DILUPBiCGStab:  Solving for Ux, Initial residual = 0.001609789065, Final residual = 2.439805659e-31, No Iterations 21
DILUPBiCGStab:  Solving for Uy, Initial residual = 0.09996013996, Final residual = 4.498959683e-31, No Iterations 22
HFDIBRANS: Max error in U -> Ui is 0.8563464724
GAMG:  Solving for p, Initial residual = 0.054351233, Final residual = 6.94141204e-11, No Iterations 30
time step continuity errors : sum local = 2.889979108e-07, global = -9.774864775e-09, cumulative = 3.272879795e-07
DILUPBiCGStab:  Solving for omega, Initial residual = 2.709168026e-05, Final residual = 3.220561727e-31, No Iterations 15
DILUPBiCGStab:  Solving for k, Initial residual = 0.02578908903, Final residual = 1.058044508e-32, No Iterations 17
HFDIBRANS: Max error in k -> ki is 18.40968982
bounding k, min: -1.454836229 max: 306.5428474 average: 12.2391552
ExecutionTime = 24.45 s  ClockTime = 24 s

Time = 82

DILUPBiCGStab:  Solving for Ux, Initial residual = 0.001526204708, Final residual = 1.197029778e-31, No Iterations 22
DILUPBiCGStab:  Solving for Uy, Initial residual = 0.09213203603, Final residual = 6.981018e-31, No Iterations 22
HFDIBRANS: Max error in U -> Ui is 0.9323719052
GAMG:  Solving for p, Initial residual = 0.0539222361, Final residual = 9.749844595e-11, No Iterations 30
time step continuity errors : sum local = 4.048139382e-07, global = -1.460105833e-08, cumulative = 3.126869211e-07
DILUPBiCGStab:  Solving for omega, Initial residual = 2.656167689e-05, Final residual = 1.423745851e-31, No Iterations 15
DILUPBiCGStab:  Solving for k, Initial residual = 0.0256638959, Final residual = 1.437529669e-31, No Iterations 16
HFDIBRANS: Max error in k -> ki is 15.10070482
bounding k, min: -5.884401672 max: 303.1586027 average: 12.17999561
ExecutionTime = 24.72 s  ClockTime = 25 s

Time = 83

DILUPBiCGStab:  Solving for Ux, Initial residual = 0.001461226745, Final residual = 7.898760146e-31, No Iterations 21
DILUPBiCGStab:  Solving for Uy, Initial residual = 0.09222124838, Final residual = 2.893179891e-31, No Iterations 22
HFDIBRANS: Max error in U -> Ui is 0.7826942979
GAMG:  Solving for p, Initial residual = 0.05291824527, Final residual = 9.855195517e-11, No Iterations 30
time step continuity errors : sum local = 4.091450418e-07, global = -1.431544837e-08, cumulative = 2.983714728e-07
DILUPBiCGStab:  Solving for omega, Initial residual = 2.669346596e-05, Final residual = 5.988471517e-31, No Iterations 15
DILUPBiCGStab:  Solving for k, Initial residual = 0.02576443076, Final residual = 2.210253154e-31, No Iterations 16
HFDIBRANS: Max error in k -> ki is 18.35816398
bounding k, min: -1.186045243 max: 302.5681647 average: 12.12273013
ExecutionTime = 24.99 s  ClockTime = 25 s

Time = 84

DILUPBiCGStab:  Solving for Ux, Initial residual = 0.001470515469, Final residual = 1.456812323e-31, No Iterations 21
DILUPBiCGStab:  Solving for Uy, Initial residual = 0.0917127878, Final residual = 1.299809695e-31, No Iterations 23
HFDIBRANS: Max error in U -> Ui is 0.9291006658
GAMG:  Solving for p, Initial residual = 0.05171118187, Final residual = 9.39875458e-11, No Iterations 30
time step continuity errors : sum local = 3.934136152e-07, global = -2.044228305e-08, cumulative = 2.779291897e-07
DILUPBiCGStab:  Solving for omega, Initial residual = 2.626853863e-05, Final residual = 1.471767478e-31, No Iterations 15
DILUPBiCGStab:  Solving for k, Initial residual = 0.02570451675, Final residual = 9.526527489e-31, No Iterations 15
HFDIBRANS: Max error in k -> ki is 14.98494361
bounding k, min: -5.616928933 max: 299.4700426 average: 12.06695572
ExecutionTime = 25.27 s  ClockTime = 25 s

Time = 85

DILUPBiCGStab:  Solving for Ux, Initial residual = 0.001433542999, Final residual = 5.198494106e-31, No Iterations 21
DILUPBiCGStab:  Solving for Uy, Initial residual = 0.09617475876, Final residual = 7.098436238e-31, No Iterations 22
HFDIBRANS: Max error in U -> Ui is 0.7111814982
GAMG:  Solving for p, Initial residual = 0.0502150145, Final residual = 7.928306543e-11, No Iterations 30
time step continuity errors : sum local = 3.342824987e-07, global = -1.81077086e-08, cumulative = 2.598214811e-07
DILUPBiCGStab:  Solving for omega, Initial residual = 2.621839041e-05, Final residual = 4.58619e-31, No Iterations 15
DILUPBiCGStab:  Solving for k, Initial residual = 0.02575515634, Final residual = 2.569678767e-31, No Iterations 16
HFDIBRANS: Max error in k -> ki is 18.30341878
bounding k, min: -1.186380151 max: 298.7889982 average: 12.01271336
ExecutionTime = 25.54 s  ClockTime = 26 s

Time = 86

DILUPBiCGStab:  Solving for Ux, Initial residual = 0.001445669648, Final residual = 2.574993497e-31, No Iterations 22
DILUPBiCGStab:  Solving for Uy, Initial residual = 0.09726913585, Final residual = 4.647269222e-31, No Iterations 22
HFDIBRANS: Max error in U -> Ui is 0.8871529783
GAMG:  Solving for p, Initial residual = 0.0490143928, Final residual = 6.626941787e-11, No Iterations 30
time step continuity errors : sum local = 2.829284299e-07, global = -1.539409419e-08, cumulative = 2.444273869e-07
DILUPBiCGStab:  Solving for omega, Initial residual = 2.56601869e-05, Final residual = 2.678654146e-31, No Iterations 15
DILUPBiCGStab:  Solving for k, Initial residual = 0.02571957058, Final residual = 9.394291468e-31, No Iterations 15
HFDIBRANS: Max error in k -> ki is 14.88068325
bounding k, min: -6.433875365 max: 295.9761518 average: 11.95976024
ExecutionTime = 25.81 s  ClockTime = 26 s

Time = 87

DILUPBiCGStab:  Solving for Ux, Initial residual = 0.00139562188, Final residual = 1.781729127e-31, No Iterations 21
DILUPBiCGStab:  Solving for Uy, Initial residual = 0.1003580726, Final residual = 2.844618461e-31, No Iterations 23
[...]
GAMG:  Solving for p, Initial residual = 0.0002122772845, Final residual = 5.940902582e-11, No Iterations 21
time step continuity errors : sum local = 1.620294304e-07, global = -7.875526963e-09, cumulative = -3.132911172e-05
DILUPBiCGStab:  Solving for omega, Initial residual = 4.19769143e-09, Final residual = 7.314119075e-32, No Iterations 13
DILUPBiCGStab:  Solving for k, Initial residual = 0.0310659502, Final residual = 6.868820511e-31, No Iterations 15
HFDIBRANS: Max error in k -> ki is 17.99677139
bounding k, min: -1.55226184 max: 264.8248647 average: 9.963225956
ExecutionTime = 711.01 s  ClockTime = 712 s

Time = 2980

DILUPBiCGStab:  Solving for Ux, Initial residual = 3.125189753e-06, Final residual = 7.576854979e-32, No Iterations 20
DILUPBiCGStab:  Solving for Uy, Initial residual = 0.0005832334081, Final residual = 5.693898326e-32, No Iterations 21
HFDIBRANS: Max error in U -> Ui is 0.01712304193
GAMG:  Solving for p, Initial residual = 0.0002122000538, Final residual = 9.090470765e-11, No Iterations 20
time step continuity errors : sum local = 2.47931447e-07, global = -1.557167272e-08, cumulative = -3.134468339e-05
DILUPBiCGStab:  Solving for omega, Initial residual = 4.170773245e-09, Final residual = 3.825436229e-31, No Iterations 12
DILUPBiCGStab:  Solving for k, Initial residual = 0.03092149509, Final residual = 3.728521178e-31, No Iterations 15
HFDIBRANS: Max error in k -> ki is 15.33533203
bounding k, min: -8.007468367 max: 264.8309048 average: 9.963233334
ExecutionTime = 711.25 s  ClockTime = 712 s

Time = 2981

DILUPBiCGStab:  Solving for Ux, Initial residual = 3.103103842e-06, Final residual = 3.408386256e-31, No Iterations 19
DILUPBiCGStab:  Solving for Uy, Initial residual = 0.000589278866, Final residual = 3.638657746e-31, No Iterations 21
HFDIBRANS: Max error in U -> Ui is 0.01488453459
GAMG:  Solving for p, Initial residual = 0.0002121529853, Final residual = 5.938895996e-11, No Iterations 21
time step continuity errors : sum local = 1.61953212e-07, global = -7.870863182e-09, cumulative = -3.135255425e-05
DILUPBiCGStab:  Solving for omega, Initial residual = 4.227445489e-09, Final residual = 5.976332461e-31, No Iterations 12
DILUPBiCGStab:  Solving for k, Initial residual = 0.03102487517, Final residual = 6.53733894e-31, No Iterations 15
HFDIBRANS: Max error in k -> ki is 17.99663926
bounding k, min: -1.241656555 max: 264.8247582 average: 9.963226735
ExecutionTime = 711.49 s  ClockTime = 712 s

Time = 2982

DILUPBiCGStab:  Solving for Ux, Initial residual = 3.123272729e-06, Final residual = 7.594600713e-32, No Iterations 20
DILUPBiCGStab:  Solving for Uy, Initial residual = 0.0005829574658, Final residual = 5.68643547e-32, No Iterations 21
HFDIBRANS: Max error in U -> Ui is 0.01711295303
GAMG:  Solving for p, Initial residual = 0.0002120772498, Final residual = 9.086893261e-11, No Iterations 20
time step continuity errors : sum local = 2.478005686e-07, global = -1.555955992e-08, cumulative = -3.136811381e-05
DILUPBiCGStab:  Solving for omega, Initial residual = 4.187182238e-09, Final residual = 4.06428207e-31, No Iterations 12
DILUPBiCGStab:  Solving for k, Initial residual = 0.03088207491, Final residual = 4.335103094e-31, No Iterations 15
HFDIBRANS: Max error in k -> ki is 15.33533204
bounding k, min: -6.637446842 max: 264.8307128 average: 9.963234019
ExecutionTime = 711.72 s  ClockTime = 712 s

Time = 2983

DILUPBiCGStab:  Solving for Ux, Initial residual = 3.10116902e-06, Final residual = 3.404460687e-31, No Iterations 19
DILUPBiCGStab:  Solving for Uy, Initial residual = 0.0005889914472, Final residual = 3.673073856e-31, No Iterations 21
HFDIBRANS: Max error in U -> Ui is 0.01487554333
GAMG:  Solving for p, Initial residual = 0.0002120288456, Final residual = 5.944240269e-11, No Iterations 21
time step continuity errors : sum local = 1.620776122e-07, global = -7.864295221e-09, cumulative = -3.137597811e-05
DILUPBiCGStab:  Solving for omega, Initial residual = 4.25618588e-09, Final residual = 2.69139965e-31, No Iterations 12
DILUPBiCGStab:  Solving for k, Initial residual = 0.03098374499, Final residual = 4.364845381e-31, No Iterations 15
HFDIBRANS: Max error in k -> ki is 17.99616288
bounding k, min: -1.244320756 max: 264.8247357 average: 9.963227887
ExecutionTime = 711.95 s  ClockTime = 712 s

Time = 2984

DILUPBiCGStab:  Solving for Ux, Initial residual = 3.121265123e-06, Final residual = 7.608557472e-32, No Iterations 20
DILUPBiCGStab:  Solving for Uy, Initial residual = 0.0005826869237, Final residual = 5.67913839e-32, No Iterations 21
HFDIBRANS: Max error in U -> Ui is 0.01710288292
GAMG:  Solving for p, Initial residual = 0.0002119616269, Final residual = 9.084730103e-11, No Iterations 20
time step continuity errors : sum local = 2.477090835e-07, global = -1.55510548e-08, cumulative = -3.139152916e-05
DILUPBiCGStab:  Solving for omega, Initial residual = 4.204560064e-09, Final residual = 4.960357934e-31, No Iterations 12
DILUPBiCGStab:  Solving for k, Initial residual = 0.03088205257, Final residual = 4.334306771e-31, No Iterations 15
HFDIBRANS: Max error in k -> ki is 15.33533344
bounding k, min: -6.637454145 max: 264.8304202 average: 9.963234512
ExecutionTime = 712.18 s  ClockTime = 713 s

Time = 2985

DILUPBiCGStab:  Solving for Ux, Initial residual = 3.099269074e-06, Final residual = 3.400273839e-31, No Iterations 19
DILUPBiCGStab:  Solving for Uy, Initial residual = 0.0005887119799, Final residual = 3.71003368e-31, No Iterations 21
HFDIBRANS: Max error in U -> Ui is 0.01486688748
GAMG:  Solving for p, Initial residual = 0.0002119074805, Final residual = 5.94346022e-11, No Iterations 21
time step continuity errors : sum local = 1.620352246e-07, global = -7.861901196e-09, cumulative = -3.139939106e-05
DILUPBiCGStab:  Solving for omega, Initial residual = 4.303043584e-09, Final residual = 2.441853891e-31, No Iterations 12
DILUPBiCGStab:  Solving for k, Initial residual = 0.03105463663, Final residual = 6.427483278e-31, No Iterations 15
HFDIBRANS: Max error in k -> ki is 17.99664217
bounding k, min: -1.552249108 max: 264.8243348 average: 9.963227219
ExecutionTime = 712.41 s  ClockTime = 713 s

Time = 2986

DILUPBiCGStab:  Solving for Ux, Initial residual = 3.119161995e-06, Final residual = 7.620971583e-32, No Iterations 20
DILUPBiCGStab:  Solving for Uy, Initial residual = 0.0005824451006, Final residual = 5.671931785e-32, No Iterations 21
HFDIBRANS: Max error in U -> Ui is 0.01709282572
GAMG:  Solving for p, Initial residual = 0.0002118346993, Final residual = 9.082432099e-11, No Iterations 20
time step continuity errors : sum local = 2.476125479e-07, global = -1.554882805e-08, cumulative = -3.141493989e-05
DILUPBiCGStab:  Solving for omega, Initial residual = 4.170017407e-09, Final residual = 5.068784348e-31, No Iterations 12
DILUPBiCGStab:  Solving for k, Initial residual = 0.03092145881, Final residual = 4.329154616e-31, No Iterations 15
HFDIBRANS: Max error in k -> ki is 15.33533724
bounding k, min: -8.008755136 max: 264.8303635 average: 9.963234174
ExecutionTime = 712.63 s  ClockTime = 713 s

Time = 2987

DILUPBiCGStab:  Solving for Ux, Initial residual = 3.097301214e-06, Final residual = 3.397478226e-31, No Iterations 19
DILUPBiCGStab:  Solving for Uy, Initial residual = 0.0005884271987, Final residual = 3.792122258e-31, No Iterations 21
HFDIBRANS: Max error in U -> Ui is 0.01485781065
GAMG:  Solving for p, Initial residual = 0.0002117853322, Final residual = 5.929649648e-11, No Iterations 21
time step continuity errors : sum local = 1.616384201e-07, global = -7.866844885e-09, cumulative = -3.142280674e-05
DILUPBiCGStab:  Solving for omega, Initial residual = 4.242523854e-09, Final residual = 2.06911618e-31, No Iterations 12
DILUPBiCGStab:  Solving for k, Initial residual = 0.03098374927, Final residual = 4.359827079e-31, No Iterations 15
HFDIBRANS: Max error in k -> ki is 17.99608182
bounding k, min: -1.24431066 max: 264.8242979 average: 9.963228216
ExecutionTime = 712.87 s  ClockTime = 713 s

Time = 2988

DILUPBiCGStab:  Solving for Ux, Initial residual = 3.117128628e-06, Final residual = 7.638098399e-32, No Iterations 20
DILUPBiCGStab:  Solving for Uy, Initial residual = 0.0005821778422, Final residual = 5.66434641e-32, No Iterations 21
HFDIBRANS: Max error in U -> Ui is 0.01708287011
GAMG:  Solving for p, Initial residual = 0.0002117105794, Final residual = 9.080302511e-11, No Iterations 20
time step continuity errors : sum local = 2.475231692e-07, global = -1.554903482e-08, cumulative = -3.143835577e-05
DILUPBiCGStab:  Solving for omega, Initial residual = 4.212656627e-09, Final residual = 3.762683377e-31, No Iterations 12
DILUPBiCGStab:  Solving for k, Initial residual = 0.03096083723, Final residual = 3.720946972e-31, No Iterations 15
HFDIBRANS: Max error in k -> ki is 15.3353397
bounding k, min: -8.008764638 max: 264.8299655 average: 9.963233927
ExecutionTime = 713.09 s  ClockTime = 714 s

Time = 2989

DILUPBiCGStab:  Solving for Ux, Initial residual = 3.095284265e-06, Final residual = 3.393888355e-31, No Iterations 19
DILUPBiCGStab:  Solving for Uy, Initial residual = 0.0005881529446, Final residual = 3.945532546e-31, No Iterations 21
HFDIBRANS: Max error in U -> Ui is 0.01484907838
GAMG:  Solving for p, Initial residual = 0.0002116587889, Final residual = 5.91021248e-11, No Iterations 21
time step continuity errors : sum local = 1.61085513e-07, global = -7.882867458e-09, cumulative = -3.144623864e-05
DILUPBiCGStab:  Solving for omega, Initial residual = 4.310442262e-09, Final residual = 5.686643577e-31, No Iterations 12
DILUPBiCGStab:  Solving for k, Initial residual = 0.03105452911, Final residual = 8.584974522e-31, No Iterations 15
HFDIBRANS: Max error in k -> ki is 17.9960381
bounding k, min: -1.548676995 max: 264.8240664 average: 9.963227009
ExecutionTime = 713.32 s  ClockTime = 714 s

Time = 2990

DILUPBiCGStab:  Solving for Ux, Initial residual = 3.115040683e-06, Final residual = 7.652262886e-32, No Iterations 20
DILUPBiCGStab:  Solving for Uy, Initial residual = 0.0005819232072, Final residual = 5.657236969e-32, No Iterations 21
HFDIBRANS: Max error in U -> Ui is 0.01707285813
GAMG:  Solving for p, Initial residual = 0.0002115799451, Final residual = 9.077460859e-11, No Iterations 20
time step continuity errors : sum local = 2.474124592e-07, global = -1.555043159e-08, cumulative = -3.146178907e-05
DILUPBiCGStab:  Solving for omega, Initial residual = 4.17842692e-09, Final residual = 4.470193682e-31, No Iterations 12
DILUPBiCGStab:  Solving for k, Initial residual = 0.03088208553, Final residual = 4.334728124e-31, No Iterations 15
HFDIBRANS: Max error in k -> ki is 15.33534503
bounding k, min: -6.637480304 max: 264.8296943 average: 9.963234492
ExecutionTime = 713.55 s  ClockTime = 714 s

Time = 2991

DILUPBiCGStab:  Solving for Ux, Initial residual = 3.093143598e-06, Final residual = 3.390928961e-31, No Iterations 19
DILUPBiCGStab:  Solving for Uy, Initial residual = 0.0005878535341, Final residual = 4.199070702e-31, No Iterations 21
HFDIBRANS: Max error in U -> Ui is 0.01484037228
GAMG:  Solving for p, Initial residual = 0.0002115355655, Final residual = 5.922281365e-11, No Iterations 21
time step continuity errors : sum local = 1.613930121e-07, global = -7.860645527e-09, cumulative = -3.146964972e-05
DILUPBiCGStab:  Solving for omega, Initial residual = 4.167217234e-09, Final residual = 2.968858908e-31, No Iterations 12
DILUPBiCGStab:  Solving for k, Initial residual = 0.0310249058, Final residual = 4.252741616e-31, No Iterations 15
HFDIBRANS: Max error in k -> ki is 17.99650734
bounding k, min: -1.552235273 max: 264.8236501 average: 9.963227673
ExecutionTime = 713.78 s  ClockTime = 714 s

Time = 2992

DILUPBiCGStab:  Solving for Ux, Initial residual = 3.112963129e-06, Final residual = 7.675000753e-32, No Iterations 20
DILUPBiCGStab:  Solving for Uy, Initial residual = 0.0005816262854, Final residual = 5.650746359e-32, No Iterations 21
HFDIBRANS: Max error in U -> Ui is 0.01706275537
GAMG:  Solving for p, Initial residual = 0.0002114542325, Final residual = 9.073366855e-11, No Iterations 20
time step continuity errors : sum local = 2.472672114e-07, global = -1.553464844e-08, cumulative = -3.148518436e-05
DILUPBiCGStab:  Solving for omega, Initial residual = 4.188625575e-09, Final residual = 5.23291939e-31, No Iterations 12
DILUPBiCGStab:  Solving for k, Initial residual = 0.03092147419, Final residual = 3.727309331e-31, No Iterations 15
HFDIBRANS: Max error in k -> ki is 15.33534372
bounding k, min: -8.007523246 max: 264.8296548 average: 9.963234404
ExecutionTime = 714 s  ClockTime = 715 s

Time = 2993

DILUPBiCGStab:  Solving for Ux, Initial residual = 3.091168159e-06, Final residual = 3.388051002e-31, No Iterations 19
DILUPBiCGStab:  Solving for Uy, Initial residual = 0.000587584406, Final residual = 4.685662047e-31, No Iterations 21
HFDIBRANS: Max error in U -> Ui is 0.01483119697
GAMG:  Solving for p, Initial residual = 0.0002114051455, Final residual = 5.928943269e-11, No Iterations 21
time step continuity errors : sum local = 1.615539596e-07, global = -7.850803746e-09, cumulative = -3.149303517e-05
DILUPBiCGStab:  Solving for omega, Initial residual = 4.248585492e-09, Final residual = 4.268189035e-31, No Iterations 12
DILUPBiCGStab:  Solving for k, Initial residual = 0.03102480064, Final residual = 6.945156612e-31, No Iterations 15
HFDIBRANS: Max error in k -> ki is 17.99594587
bounding k, min: -1.244298203 max: 264.8236366 average: 9.963227752
ExecutionTime = 714.23 s  ClockTime = 715 s

Time = 2994

DILUPBiCGStab:  Solving for Ux, Initial residual = 3.110958579e-06, Final residual = 7.692500305e-32, No Iterations 20
DILUPBiCGStab:  Solving for Uy, Initial residual = 0.0005813649261, Final residual = 5.642845702e-32, No Iterations 21
HFDIBRANS: Max error in U -> Ui is 0.01705271889
GAMG:  Solving for p, Initial residual = 0.000211327655, Final residual = 9.070326933e-11, No Iterations 20
time step continuity errors : sum local = 2.471536585e-07, global = -1.552335241e-08, cumulative = -3.150855852e-05
DILUPBiCGStab:  Solving for omega, Initial residual = 4.173637654e-09, Final residual = 9.63804371e-32, No Iterations 13
DILUPBiCGStab:  Solving for k, Initial residual = 0.03088207307, Final residual = 4.334417503e-31, No Iterations 15
HFDIBRANS: Max error in k -> ki is 15.3353467
bounding k, min: -6.637494173 max: 264.8293227 average: 9.963234951
ExecutionTime = 714.46 s  ClockTime = 715 s

Time = 2995

DILUPBiCGStab:  Solving for Ux, Initial residual = 3.089211591e-06, Final residual = 3.384884928e-31, No Iterations 19
DILUPBiCGStab:  Solving for Uy, Initial residual = 0.0005872959854, Final residual = 5.427145486e-31, No Iterations 21
HFDIBRANS: Max error in U -> Ui is 0.01482239166
GAMG:  Solving for p, Initial residual = 0.0002112808505, Final residual = 5.94085781e-11, No Iterations 21
time step continuity errors : sum local = 1.618578304e-07, global = -7.84177641e-09, cumulative = -3.15164003e-05
DILUPBiCGStab:  Solving for omega, Initial residual = 4.228248819e-09, Final residual = 3.797266462e-31, No Iterations 12
DILUPBiCGStab:  Solving for k, Initial residual = 0.03099504267, Final residual = 7.074795233e-31, No Iterations 15
HFDIBRANS: Max error in k -> ki is 17.99580785
bounding k, min: -1.14188243 max: 264.8235799 average: 9.963228518
ExecutionTime = 714.69 s  ClockTime = 715 s

Time = 2996

DILUPBiCGStab:  Solving for Ux, Initial residual = 3.10895355e-06, Final residual = 7.714839606e-32, No Iterations 20
DILUPBiCGStab:  Solving for Uy, Initial residual = 0.0005810918868, Final residual = 5.636072096e-32, No Iterations 21
HFDIBRANS: Max error in U -> Ui is 0.0170427005
GAMG:  Solving for p, Initial residual = 0.0002112099615, Final residual = 9.068520067e-11, No Iterations 20
time step continuity errors : sum local = 2.47071648e-07, global = -1.551105258e-08, cumulative = -3.153191135e-05
DILUPBiCGStab:  Solving for omega, Initial residual = 4.192383612e-09, Final residual = 1.056567508e-31, No Iterations 13
DILUPBiCGStab:  Solving for k, Initial residual = 0.03092144436, Final residual = 4.329764741e-31, No Iterations 15
HFDIBRANS: Max error in k -> ki is 15.33534788
bounding k, min: -8.008801307 max: 264.8290741 average: 9.963234916
ExecutionTime = 714.92 s  ClockTime = 715 s

Time = 2997

DILUPBiCGStab:  Solving for Ux, Initial residual = 3.087357816e-06, Final residual = 3.381174636e-31, No Iterations 19
DILUPBiCGStab:  Solving for Uy, Initial residual = 0.000587029195, Final residual = 7.019499282e-31, No Iterations 21
HFDIBRANS: Max error in U -> Ui is 0.01481385551
GAMG:  Solving for p, Initial residual = 0.0002111577548, Final residual = 5.928728026e-11, No Iterations 21
time step continuity errors : sum local = 1.615056446e-07, global = -7.84149802e-09, cumulative = -3.153975285e-05
DILUPBiCGStab:  Solving for omega, Initial residual = 4.298016328e-09, Final residual = 9.058228794e-31, No Iterations 12
DILUPBiCGStab:  Solving for k, Initial residual = 0.03102479764, Final residual = 6.952713752e-31, No Iterations 15
HFDIBRANS: Max error in k -> ki is 17.9958492
bounding k, min: -1.244298819 max: 264.823389 average: 9.96322825
ExecutionTime = 715.15 s  ClockTime = 716 s

Time = 2998

DILUPBiCGStab:  Solving for Ux, Initial residual = 3.1069502e-06, Final residual = 7.735529698e-32, No Iterations 20
DILUPBiCGStab:  Solving for Uy, Initial residual = 0.0005808467966, Final residual = 5.629464575e-32, No Iterations 21
HFDIBRANS: Max error in U -> Ui is 0.01703278534
GAMG:  Solving for p, Initial residual = 0.0002110845429, Final residual = 9.066325116e-11, No Iterations 20
time step continuity errors : sum local = 2.469785557e-07, global = -1.550888774e-08, cumulative = -3.155526173e-05
DILUPBiCGStab:  Solving for omega, Initial residual = 4.185579767e-09, Final residual = 2.410716346e-31, No Iterations 13
DILUPBiCGStab:  Solving for k, Initial residual = 0.03088206958, Final residual = 4.333193129e-31, No Iterations 15
HFDIBRANS: Max error in k -> ki is 15.33534981
bounding k, min: -6.637508559 max: 264.8289216 average: 9.963235393
ExecutionTime = 715.38 s  ClockTime = 716 s

Time = 2999

DILUPBiCGStab:  Solving for Ux, Initial residual = 3.085361048e-06, Final residual = 3.377999728e-31, No Iterations 19
DILUPBiCGStab:  Solving for Uy, Initial residual = 0.0005867400785, Final residual = 2.602149723e-31, No Iterations 21
HFDIBRANS: Max error in U -> Ui is 0.01480508557
GAMG:  Solving for p, Initial residual = 0.0002110364382, Final residual = 5.921758011e-11, No Iterations 21
time step continuity errors : sum local = 1.612944103e-07, global = -7.842848597e-09, cumulative = -3.156310458e-05
DILUPBiCGStab:  Solving for omega, Initial residual = 4.223453073e-09, Final residual = 1.890698403e-32, No Iterations 13
DILUPBiCGStab:  Solving for k, Initial residual = 0.03099514235, Final residual = 4.302409039e-31, No Iterations 15
HFDIBRANS: Max error in k -> ki is 17.99623902
bounding k, min: -1.144642655 max: 264.8230737 average: 9.963228946
ExecutionTime = 715.62 s  ClockTime = 716 s

Time = 3000

DILUPBiCGStab:  Solving for Ux, Initial residual = 3.104910132e-06, Final residual = 7.75600548e-32, No Iterations 20
DILUPBiCGStab:  Solving for Uy, Initial residual = 0.0005805695146, Final residual = 5.622249544e-32, No Iterations 21
HFDIBRANS: Max error in U -> Ui is 0.01702273361
GAMG:  Solving for p, Initial residual = 0.0002109652178, Final residual = 9.061856433e-11, No Iterations 20
time step continuity errors : sum local = 2.468258098e-07, global = -1.549753054e-08, cumulative = -3.157860211e-05
DILUPBiCGStab:  Solving for omega, Initial residual = 4.198255632e-09, Final residual = 3.765483907e-31, No Iterations 12
DILUPBiCGStab:  Solving for k, Initial residual = 0.03088205752, Final residual = 4.332889411e-31, No Iterations 15
HFDIBRANS: Max error in k -> ki is 15.33534957
bounding k, min: -6.637514789 max: 264.8288868 average: 9.96323576
ExecutionTime = 716.38 s  ClockTime = 717 s

End

